Problem parsing this memory access (skipping this line):
['GPGPU-Sim uArch', " Shader 1 bind to kernel 1 '_Z24rtTraceCWBVHDynamicFetchP3RayP3HitiPi'\n"]
Problem parsing this memory access (skipping this line):
['GPGPU-Sim uArch', " Shader 3 bind to kernel 1 '_Z24rtTraceCWBVHDynamicFetchP3RayP3HitiPi'\n"]
Problem parsing this memory access (skipping this line):
['GPGPU-Sim uArch', " Shader 5 bind to kernel 1 '_Z24rtTraceCWBVHDynamicFetchP3RayP3HitiPi'\n"]
Problem parsing this memory access (skipping this line):
['GPGPU-Sim uArch', " Shader 7 bind to kernel 1 '_Z24rtTraceCWBVHDynamicFetchP3RayP3HitiPi'\n"]
Problem parsing this memory access (skipping this line):
['GPGPU-Sim uArch', " Shader 9 bind to kernel 1 '_Z24rtTraceCWBVHDynamicFetchP3RayP3HitiPi'\n"]
Problem parsing this memory access (skipping this line):
['GPGPU-Sim uArch', " Shader 11 bind to kernel 1 '_Z24rtTraceCWBVHDynamicFetchP3RayP3HitiPi'\n"]
Problem parsing this memory access (skipping this line):
['GPGPU-Sim uArch', " Shader 13 bind to kernel 1 '_Z24rtTraceCWBVHDynamicFetchP3RayP3HitiPi'\n"]
Problem parsing this memory access (skipping this line):
['GPGPU-Sim uArch', " Shader 15 bind to kernel 1 '_Z24rtTraceCWBVHDynamicFetchP3RayP3HitiPi'\n"]
Problem parsing this memory access (skipping this line):
['GPGPU-Sim uArch', " Shader 17 bind to kernel 1 '_Z24rtTraceCWBVHDynamicFetchP3RayP3HitiPi'\n"]
Problem parsing this memory access (skipping this line):
['GPGPU-Sim uArch', " Shader 19 bind to kernel 1 '_Z24rtTraceCWBVHDynamicFetchP3RayP3HitiPi'\n"]
Problem parsing this memory access (skipping this line):
['GPGPU-Sim uArch', " Shader 21 bind to kernel 1 '_Z24rtTraceCWBVHDynamicFetchP3RayP3HitiPi'\n"]
Problem parsing this memory access (skipping this line):
['GPGPU-Sim uArch', " Shader 23 bind to kernel 1 '_Z24rtTraceCWBVHDynamicFetchP3RayP3HitiPi'\n"]
Problem parsing this memory access (skipping this line):
['GPGPU-Sim uArch', " Shader 25 bind to kernel 1 '_Z24rtTraceCWBVHDynamicFetchP3RayP3HitiPi'\n"]
Problem parsing this memory access (skipping this line):
['GPGPU-Sim uArch', " Shader 27 bind to kernel 1 '_Z24rtTraceCWBVHDynamicFetchP3RayP3HitiPi'\n"]
Problem parsing this memory access (skipping this line):
['GPGPU-Sim uArch', " Shader 29 bind to kernel 1 '_Z24rtTraceCWBVHDynamicFetchP3RayP3HitiPi'\n"]
Problem parsing this memory access (skipping this line):
['GPGPU-Sim uArch', " Shader 31 bind to kernel 1 '_Z24rtTraceCWBVHDynamicFetchP3RayP3HitiPi'\n"]
Problem parsing this memory access (skipping this line):
['GPGPU-Sim uArch', " Shader 33 bind to kernel 1 '_Z24rtTraceCWBVHDynamicFetchP3RayP3HitiPi'\n"]
Problem parsing this memory access (skipping this line):
['GPGPU-Sim uArch', " Shader 35 bind to kernel 1 '_Z24rtTraceCWBVHDynamicFetchP3RayP3HitiPi'\n"]
Problem parsing this memory access (skipping this line):
['GPGPU-Sim uArch', " Shader 37 bind to kernel 1 '_Z24rtTraceCWBVHDynamicFetchP3RayP3HitiPi'\n"]
Problem parsing this memory access (skipping this line):
['GPGPU-Sim uArch', " Shader 39 bind to kernel 1 '_Z24rtTraceCWBVHDynamicFetchP3RayP3HitiPi'\n"]
Problem parsing this memory access (skipping this line):
['GPGPU-Sim uArch', " Shader 41 bind to kernel 1 '_Z24rtTraceCWBVHDynamicFetchP3RayP3HitiPi'\n"]
Problem parsing this memory access (skipping this line):
['GPGPU-Sim uArch', " Shader 43 bind to kernel 1 '_Z24rtTraceCWBVHDynamicFetchP3RayP3HitiPi'\n"]
Problem parsing this memory access (skipping this line):
['GPGPU-Sim uArch', " Shader 45 bind to kernel 1 '_Z24rtTraceCWBVHDynamicFetchP3RayP3HitiPi'\n"]
Problem parsing this memory access (skipping this line):
['GPGPU-Sim uArch', " Shader 47 bind to kernel 1 '_Z24rtTraceCWBVHDynamicFetchP3RayP3HitiPi'\n"]
Problem parsing this memory access (skipping this line):
['GPGPU-Sim uArch', " Shader 49 bind to kernel 1 '_Z24rtTraceCWBVHDynamicFetchP3RayP3HitiPi'\n"]
Problem parsing this memory access (skipping this line):
['GPGPU-Sim uArch', " Shader 51 bind to kernel 1 '_Z24rtTraceCWBVHDynamicFetchP3RayP3HitiPi'\n"]
Problem parsing this memory access (skipping this line):
['GPGPU-Sim uArch', " Shader 53 bind to kernel 1 '_Z24rtTraceCWBVHDynamicFetchP3RayP3HitiPi'\n"]
Problem parsing this memory access (skipping this line):
['GPGPU-Sim uArch', " Shader 55 bind to kernel 1 '_Z24rtTraceCWBVHDynamicFetchP3RayP3HitiPi'\n"]
Problem parsing this memory access (skipping this line):
['GPGPU-Sim uArch', " Shader 57 bind to kernel 1 '_Z24rtTraceCWBVHDynamicFetchP3RayP3HitiPi'\n"]
Problem parsing this memory access (skipping this line):
['GPGPU-Sim uArch', " Shader 59 bind to kernel 1 '_Z24rtTraceCWBVHDynamicFetchP3RayP3HitiPi'\n"]
Problem parsing this memory access (skipping this line):
['GPGPU-Sim uArch', " Shader 61 bind to kernel 1 '_Z24rtTraceCWBVHDynamicFetchP3RayP3HitiPi'\n"]
Problem parsing this memory access (skipping this line):
['GPGPU-Sim uArch', " Shader 63 bind to kernel 1 '_Z24rtTraceCWBVHDynamicFetchP3RayP3HitiPi'\n"]
Problem parsing this memory access (skipping this line):
['GPGPU-Sim uArch', " Shader 65 bind to kernel 1 '_Z24rtTraceCWBVHDynamicFetchP3RayP3HitiPi'\n"]
Problem parsing this memory access (skipping this line):
['GPGPU-Sim uArch', " Shader 67 bind to kernel 1 '_Z24rtTraceCWBVHDynamicFetchP3RayP3HitiPi'\n"]
Problem parsing this memory access (skipping this line):
['GPGPU-Sim uArch', " Shader 69 bind to kernel 1 '_Z24rtTraceCWBVHDynamicFetchP3RayP3HitiPi'\n"]
Problem parsing this memory access (skipping this line):
['GPGPU-Sim uArch', " Shader 71 bind to kernel 1 '_Z24rtTraceCWBVHDynamicFetchP3RayP3HitiPi'\n"]
Problem parsing this memory access (skipping this line):
['GPGPU-Sim uArch', " Shader 73 bind to kernel 1 '_Z24rtTraceCWBVHDynamicFetchP3RayP3HitiPi'\n"]
Problem parsing this memory access (skipping this line):
['GPGPU-Sim uArch', " Shader 75 bind to kernel 1 '_Z24rtTraceCWBVHDynamicFetchP3RayP3HitiPi'\n"]
Problem parsing this memory access (skipping this line):
['GPGPU-Sim uArch', " Shader 77 bind to kernel 1 '_Z24rtTraceCWBVHDynamicFetchP3RayP3HitiPi'\n"]
Problem parsing this memory access (skipping this line):
['GPGPU-Sim uArch', " Shader 79 bind to kernel 1 '_Z24rtTraceCWBVHDynamicFetchP3RayP3HitiPi'\n"]
Problem parsing this memory access (skipping this line):
['GPGPU-Sim PTX', ' WARNING (CWBVH_make.2.sm_75.ptx', "59) ** reading undefined register '%f387' (cuid", '0). Setting to 0X00000000. This is okay if you are simulating the native ISA\n']
======== Memory stats ========
Label: #cudaRays, #cudaHits, #cudaBVHNodeData, #cudaInlinedPrimitives, #cudaPrimitiveIndices, #other, #instructions
LDST:  [276546, 129107, 2053870, 482466, 0, 12394, 51655207]
L2:  [0, 0, 0, 0, 0, 0, 0]
DRAM:  [137526, 15370, 59514, 122531, 0, 4, 180]
L2_hit:  [747, 144, 730377, 163780, 0, 16536, 14220]
L2_miss:  [137527, 116609, 59514, 122531, 0, 4, 180]
L2_rf:  [0, 0, 0, 0, 0, 0, 0]
L1D_hit:  [0, 10320, 658315, 36278, 0, 0, 0]
L1D_miss:  [276546, 118787, 1395555, 446188, 0, 2048, 0]
L1D_rf:  [0, 0, 0, 0, 0, 0, 0]
L1C_hit:  [0, 0, 0, 0, 0, 7274, 0]
L1C_miss:  [0, 0, 0, 0, 0, 3072, 0]
L1C_rf:  [0, 0, 0, 0, 0, 0, 0]
L1T_hit:  [0, 0, 0, 0, 0, 0, 0]
L1T_miss:  [0, 0, 0, 0, 0, 0, 0]
L1T_rf:  [0, 0, 0, 0, 0, 0, 0]
L1I_hit:  [0, 0, 0, 0, 0, 0, 51613960]
L1I_miss:  [0, 0, 0, 0, 0, 0, 41247]
L1I_rf:  [0, 0, 0, 0, 0, 0, 0]
SUM:  [828892, 390337, 4957145, 1373774, 0, 41332, 103324994]
Total number of accesses in LDST: 335429
reuse stats for: LDST
top 1%: 0.49262130197743487
top 5%: 0.6693868059760701
top 10%: 0.749420098883591
top 20%: 0.8214882769092565
top 30%: 0.8530441043019812
top 40%: 0.8757513836222318
top 1% categories: [0, 1, 3307, 45, 0, 2, 0]
top 5% categories: [0, 1, 13454, 3315, 0, 2, 0]
top 10% categories: [0, 1, 21284, 12256, 0, 2, 0]
top 20% categories: [327, 102, 31487, 35168, 0, 2, 0]
top 30% categories: [12539, 3926, 35320, 48842, 0, 2, 0]
top 40% categories: [33872, 10843, 36316, 53139, 0, 2, 0]
top 1% cutoff: 92
top 5% cutoff: 20
top 10% cutoff: 10
top 20% cutoff: 4
top 30% cutoff: 2
top 40% cutoff: 2
Total number of accesses in L2: 335431
reuse stats for: L2
top 1%: 0.3352837170167885
top 5%: 0.5562192037359518
top 10%: 0.6583383354269167
top 20%: 0.7525963277089769
top 30%: 0.80237191981712
top 40%: 0.8506732236755705
top 1% categories: [0, 1, 3311, 39, 0, 4, 0]
top 5% categories: [0, 1, 13366, 3401, 0, 4, 0]
top 10% categories: [0, 11, 21027, 12502, 0, 4, 0]
top 20% categories: [42, 1926, 30757, 34358, 0, 4, 0]
top 30% categories: [415, 24258, 33209, 42744, 0, 4, 0]
top 40% categories: [2037, 45417, 35535, 51180, 0, 4, 0]
top 1% cutoff: 51
top 5% cutoff: 12
top 10% cutoff: 6
top 20% cutoff: 2
top 30% cutoff: 2
top 40% cutoff: 1
Total number of accesses in DRAM: 277786
reuse stats for: DRAM
top 1%: 0.02837480780426637
top 5%: 0.11781635790950754
top 10%: 0.2007493767633492
top 20%: 0.3365239069100897
top 30%: 0.4194569257639314
top 40%: 0.5023929301825673
top 1% categories: [0, 0, 954, 1824, 0, 0, 0]
top 5% categories: [0, 75, 4515, 9300, 0, 0, 0]
top 10% categories: [0, 237, 8424, 19118, 0, 0, 0]
top 20% categories: [6159, 1204, 14853, 33339, 0, 3, 0]
top 30% categories: [22850, 2908, 18270, 39305, 0, 3, 0]
top 40% categories: [39284, 4634, 21714, 45480, 0, 3, 0]
top 1% cutoff: 3
top 5% cutoff: 2
top 10% cutoff: 2
top 20% cutoff: 1
top 30% cutoff: 1
top 40% cutoff: 1
