Problem parsing this memory access (skipping this line):
['\n']
Problem parsing this memory access (skipping this line):
['\n']
Problem parsing this memory access (skipping this line):
['', '', '', '', '', '', '', '', '***', 'GPGPU-Sim', 'Simulator', 'Version', '4.0.0', '', '[build', 'gpgpu-sim_git-commit-467dbd1beb86d2377e2778883f0a1f4cb4129454_modified_5]', '***\n']
Problem parsing this memory access (skipping this line):
['\n']
Problem parsing this memory access (skipping this line):
['\n']
Problem parsing this memory access (skipping this line):
['GPGPU-Sim', 'PTX,', 'simulation', 'mode', '0', '(can', 'change', 'with', 'PTX_SIM_MODE_FUNC', 'environment', 'variable,\n']
Problem parsing this memory access (skipping this line):
['', '', '', '', '', '', '', '', '', '', '', '', '', '', '', '1=functional', 'simulation', 'only,', '0=detailed', 'performance', 'simulator)\n']
Problem parsing this memory access (skipping this line):
['GPGPU-Sim', 'PTX,', 'overriding', 'embedded', 'ptx', 'with', 'ptx', 'file', '(PTX_SIM_USE_PTX_FILE', 'is', 'set)\n']
Problem parsing this memory access (skipping this line):
['GPGPU-Sim,', 'Configuration', 'options,\n']
Problem parsing this memory access (skipping this line):
['\n']
Problem parsing this memory access (skipping this line):
['-save_embedded_ptx', '', '', '', '', '', '', '', '', '', '', '', '', '', '', '', '', '', '', '', '', '', '0', '#', 'saves', 'ptx', 'files', 'embedded', 'in', 'binary', 'as', '<n>.ptx\n']
Problem parsing this memory access (skipping this line):
['-keep', '', '', '', '', '', '', '', '', '', '', '', '', '', '', '', '', '', '', '', '', '', '', '', '', '', '', '', '', '', '', '', '', '', '', '0', '#', 'keep', 'intermediate', 'files', 'created', 'by', 'GPGPU-Sim', 'when', 'interfacing', 'with', 'external', 'programs\n']
Problem parsing this memory access (skipping this line):
['-gpgpu_ptx_save_converted_ptxplus', '', '', '', '', '', '', '', '', '', '', '', '', '', '', '', '', '', '', '', '0', '#', 'Saved', 'converted', 'ptxplus', 'to', 'a', 'file\n']
Problem parsing this memory access (skipping this line):
['-gpgpu_occupancy_sm_number', '', '', '', '', '', '', '', '', '', '', '', '', '', '', '', '', '', '', '70', '#', 'The', 'SM', 'number', 'to', 'pass', 'to', 'ptxas', 'when', 'getting', 'register', 'usage', 'for', 'computing', 'GPU', 'occupancy.', 'This', 'parameter', 'is', 'required', 'in', 'the', 'config.\n']
Problem parsing this memory access (skipping this line):
['-ptx_opcode_latency_int', '', '', '', '', '', '', '', '', '4,13,4,5,145', '#', 'Opcode', 'latencies', 'for', 'integers', '<ADD,MAX,MUL,MAD,DIV>Default', '1,1,19,25,145\n']
Problem parsing this memory access (skipping this line):
['-ptx_opcode_latency_fp', '', '', '', '', '', '', '', '', '', '4,13,4,5,39', '#', 'Opcode', 'latencies', 'for', 'single', 'precision', 'floating', 'points', '<ADD,MAX,MUL,MAD,DIV>Default', '1,1,1,1,30\n']
Problem parsing this memory access (skipping this line):
['-ptx_opcode_latency_dp', '', '', '', '', '', '', '', '', '8,19,8,8,330', '#', 'Opcode', 'latencies', 'for', 'double', 'precision', 'floating', 'points', '<ADD,MAX,MUL,MAD,DIV>Default', '8,8,8,8,335\n']
Problem parsing this memory access (skipping this line):
['-ptx_opcode_latency_sfu', '', '', '', '', '', '', '', '', '', '', '', '', '', '', '', '', '', '100', '#', 'Opcode', 'latencies', 'for', 'SFU', 'instructionsDefault', '8\n']
Problem parsing this memory access (skipping this line):
['-ptx_opcode_latency_tesnor', '', '', '', '', '', '', '', '', '', '', '', '', '', '', '', '', '', '', '64', '#', 'Opcode', 'latencies', 'for', 'Tensor', 'instructionsDefault', '64\n']
Problem parsing this memory access (skipping this line):
['-ptx_opcode_initiation_int', '', '', '', '', '', '', '', '', '', '', '', '2,2,2,2,8', '#', 'Opcode', 'initiation', 'intervals', 'for', 'integers', '<ADD,MAX,MUL,MAD,DIV>Default', '1,1,4,4,32\n']
Problem parsing this memory access (skipping this line):
['-ptx_opcode_initiation_fp', '', '', '', '', '', '', '', '', '', '', '', '2,2,2,2,4', '#', 'Opcode', 'initiation', 'intervals', 'for', 'single', 'precision', 'floating', 'points', '<ADD,MAX,MUL,MAD,DIV>Default', '1,1,1,1,5\n']
Problem parsing this memory access (skipping this line):
['-ptx_opcode_initiation_dp', '', '', '', '', '', '', '', '', '', '4,4,4,4,130', '#', 'Opcode', 'initiation', 'intervals', 'for', 'double', 'precision', 'floating', 'points', '<ADD,MAX,MUL,MAD,DIV>Default', '8,8,8,8,130\n']
Problem parsing this memory access (skipping this line):
['-ptx_opcode_initiation_sfu', '', '', '', '', '', '', '', '', '', '', '', '', '', '', '', '', '', '', '', '8', '#', 'Opcode', 'initiation', 'intervals', 'for', 'sfu', 'instructionsDefault', '8\n']
Problem parsing this memory access (skipping this line):
['-ptx_opcode_initiation_tensor', '', '', '', '', '', '', '', '', '', '', '', '', '', '', '', '', '', '', '64', '#', 'Opcode', 'initiation', 'intervals', 'for', 'tensor', 'instructionsDefault', '64\n']
Problem parsing this memory access (skipping this line):
['-cdp_latency', '', '', '', '', '', '', '', '', '7200,8000,100,12000,1600', '#', 'CDP', 'API', 'latency', '<cudaStreamCreateWithFlags,', 'cudaGetParameterBufferV2_init_perWarp,', 'cudaGetParameterBufferV2_perKernel,', 'cudaLaunchDeviceV2_init_perWarp,', 'cudaLaunchDevicV2_perKernel>Default', '7200,8000,100,12000,1600\n']
Problem parsing this memory access (skipping this line):
['-network_mode', '', '', '', '', '', '', '', '', '', '', '', '', '', '', '', '', '', '', '', '', '', '', '', '', '', '', '1', '#', 'Interconnection', 'network', 'mode\n']
Problem parsing this memory access (skipping this line):
['-inter_config_file', '', '', 'config_volta_islip.icnt', '#', 'Interconnection', 'network', 'config', 'file\n']
Problem parsing this memory access (skipping this line):
['-inct_in_buffer_limit', '', '', '', '', '', '', '', '', '', '', '', '', '', '', '', '', '', '', '64', '#', 'in_buffer_limit\n']
Problem parsing this memory access (skipping this line):
['-inct_out_buffer_limit', '', '', '', '', '', '', '', '', '', '', '', '', '', '', '', '', '', '', '64', '#', 'out_buffer_limit\n']
Problem parsing this memory access (skipping this line):
['-inct_subnets', '', '', '', '', '', '', '', '', '', '', '', '', '', '', '', '', '', '', '', '', '', '', '', '', '', '', '2', '#', 'subnets\n']
Problem parsing this memory access (skipping this line):
['-gpgpu_ptx_use_cuobjdump', '', '', '', '', '', '', '', '', '', '', '', '', '', '', '', '', '', '', '', '1', '#', 'Use', 'cuobjdump', 'to', 'extract', 'ptx', 'and', 'sass', 'from', 'binaries\n']
Problem parsing this memory access (skipping this line):
['-gpgpu_experimental_lib_support', '', '', '', '', '', '', '', '', '', '', '', '', '', '', '', '', '', '', '', '0', '#', 'Try', 'to', 'extract', 'code', 'from', 'cuda', 'libraries', '[Broken', 'because', 'of', 'unknown', 'cudaGetExportTable]\n']
Problem parsing this memory access (skipping this line):
['-checkpoint_option', '', '', '', '', '', '', '', '', '', '', '', '', '', '', '', '', '', '', '', '', '', '0', '#', '', 'checkpointing', 'flag', '(0', '=', 'no', 'checkpoint)\n']
Problem parsing this memory access (skipping this line):
['-checkpoint_kernel', '', '', '', '', '', '', '', '', '', '', '', '', '', '', '', '', '', '', '', '', '', '1', '#', '', 'checkpointing', 'during', 'execution', 'of', 'which', 'kernel', '(1-', '1st', 'kernel)\n']
Problem parsing this memory access (skipping this line):
['-checkpoint_CTA', '', '', '', '', '', '', '', '', '', '', '', '', '', '', '', '', '', '', '', '', '', '', '', '', '0', '#', '', 'checkpointing', 'after', '#', 'of', 'CTA', '(<', 'less', 'than', 'total', 'CTA)\n']
Problem parsing this memory access (skipping this line):
['-resume_option', '', '', '', '', '', '', '', '', '', '', '', '', '', '', '', '', '', '', '', '', '', '', '', '', '', '0', '#', '', 'resume', 'flag', '(0', '=', 'no', 'resume)\n']
Problem parsing this memory access (skipping this line):
['-resume_kernel', '', '', '', '', '', '', '', '', '', '', '', '', '', '', '', '', '', '', '', '', '', '', '', '', '', '0', '#', '', 'Resume', 'from', 'which', 'kernel', '(1=', '1st', 'kernel)\n']
Problem parsing this memory access (skipping this line):
['-resume_CTA', '', '', '', '', '', '', '', '', '', '', '', '', '', '', '', '', '', '', '', '', '', '', '', '', '', '', '', '', '0', '#', '', 'resume', 'from', 'which', 'CTA', '\n']
Problem parsing this memory access (skipping this line):
['-checkpoint_CTA_t', '', '', '', '', '', '', '', '', '', '', '', '', '', '', '', '', '', '', '', '', '', '', '0', '#', '', 'resume', 'from', 'which', 'CTA', '\n']
Problem parsing this memory access (skipping this line):
['-checkpoint_insn_Y', '', '', '', '', '', '', '', '', '', '', '', '', '', '', '', '', '', '', '', '', '', '0', '#', '', 'resume', 'from', 'which', 'CTA', '\n']
Problem parsing this memory access (skipping this line):
['-gpgpu_ptx_convert_to_ptxplus', '', '', '', '', '', '', '', '', '', '', '', '', '', '', '', '', '', '', '', '0', '#', 'Convert', 'SASS', '(native', 'ISA)', 'to', 'ptxplus', 'and', 'run', 'ptxplus\n']
Problem parsing this memory access (skipping this line):
['-gpgpu_ptx_force_max_capability', '', '', '', '', '', '', '', '', '', '', '', '', '', '', '', '', '', '', '75', '#', 'Force', 'maximum', 'compute', 'capability\n']
Problem parsing this memory access (skipping this line):
['-gpgpu_ptx_inst_debug_to_file', '', '', '', '', '', '', '', '', '', '', '', '', '', '', '', '', '', '', '', '0', '#', 'Dump', 'executed', "instructions'", 'debug', 'information', 'to', 'file\n']
Problem parsing this memory access (skipping this line):
['-gpgpu_ptx_inst_debug_file', '', '', '', '', '', '', 'inst_debug.txt', '#', 'Executed', "instructions'", 'debug', 'output', 'file\n']
Problem parsing this memory access (skipping this line):
['-gpgpu_ptx_inst_debug_thread_uid', '', '', '', '', '', '', '', '', '', '', '', '', '', '', '', '', '', '', '', '1', '#', 'Thread', 'UID', 'for', 'executed', "instructions'", 'debug', 'output\n']
Problem parsing this memory access (skipping this line):
['-gpgpu_simd_model', '', '', '', '', '', '', '', '', '', '', '', '', '', '', '', '', '', '', '', '', '', '', '1', '#', '1', '=', 'post-dominator\n']
Problem parsing this memory access (skipping this line):
['-gpgpu_shader_core_pipeline', '', '', '', '', '', '', '', '', '', '', '', '', '', '2048,32', '#', 'shader', 'core', 'pipeline', 'config,', 'i.e.,', '{<nthread>,<warpsize>}\n']
Problem parsing this memory access (skipping this line):
['-gpgpu_tex_cache,l1', '', 'N,16,128,24,L,R,m,N,L,T,128,4,128,2', '#', 'per-shader', 'L1', 'texture', 'cache', '', '(READ-ONLY)', 'config', '', '{<nsets>,<bsize>,<assoc>,<rep>,<wr>,<alloc>,<wr_alloc>,<mshr>,<N>,<merge>,<mq>,<rf>}\n']
Problem parsing this memory access (skipping this line):
['-gpgpu_const_cache,l1', 'N,128,64,8,L,R,f,N,L,S,2,64,4', '#', 'per-shader', 'L1', 'constant', 'memory', 'cache', '', '(READ-ONLY)', 'config', '', '{<nsets>,<bsize>,<assoc>,<rep>,<wr>,<alloc>,<wr_alloc>,<mshr>,<N>,<merge>,<mq>}', '\n']
Problem parsing this memory access (skipping this line):
['-gpgpu_cache,il1', '', '', '', '', 'N,64,128,16,L,R,f,N,L,S,2,48,4', '#', 'shader', 'L1', 'instruction', 'cache', 'config', '', '{<nsets>,<bsize>,<assoc>,<rep>,<wr>,<alloc>,<wr_alloc>,<mshr>,<N>,<merge>,<mq>}', '\n']
Problem parsing this memory access (skipping this line):
['-gpgpu_cache,dl1', '', '', '', '', 'S,4,128,64,L,L,s,N,L,A,256,8,16,0,32', '#', 'per-shader', 'L1', 'data', 'cache', 'config', '', '{<nsets>,<bsize>,<assoc>,<rep>,<wr>,<alloc>,<wr_alloc>,<mshr>,<N>,<merge>,<mq>', '|', 'none}\n']
Problem parsing this memory access (skipping this line):
['-l1_latency', '', '', '', '', '', '', '', '', '', '', '', '', '', '', '', '', '', '', '', '', '', '', '', '', '', '', '', '28', '#', 'L1', 'Hit', 'Latency\n']
Problem parsing this memory access (skipping this line):
['-smem_latency', '', '', '', '', '', '', '', '', '', '', '', '', '', '', '', '', '', '', '', '', '', '', '', '', '', '19', '#', 'smem', 'Latency\n']
Problem parsing this memory access (skipping this line):
['-gpgpu_cache,dl1PrefL1', '', '', '', '', '', '', '', '', '', '', '', '', '', '', '', '', 'none', '#', 'per-shader', 'L1', 'data', 'cache', 'config', '', '{<nsets>,<bsize>,<assoc>,<rep>,<wr>,<alloc>,<wr_alloc>,<mshr>,<N>,<merge>,<mq>', '|', 'none}\n']
Problem parsing this memory access (skipping this line):
['-gpgpu_cache,dl1PrefShared', '', '', '', '', '', '', '', '', '', '', '', '', '', '', '', '', 'none', '#', 'per-shader', 'L1', 'data', 'cache', 'config', '', '{<nsets>,<bsize>,<assoc>,<rep>,<wr>,<alloc>,<wr_alloc>,<mshr>,<N>,<merge>,<mq>', '|', 'none}\n']
Problem parsing this memory access (skipping this line):
['-gmem_skip_L1D', '', '', '', '', '', '', '', '', '', '', '', '', '', '', '', '', '', '', '', '', '', '', '', '', '', '0', '#', 'global', 'memory', 'access', 'skip', 'L1D', 'cache', '(implements', '-Xptxas', '-dlcm=cg,', 'default=no', 'skip)\n']
Problem parsing this memory access (skipping this line):
['-gpgpu_perfect_mem', '', '', '', '', '', '', '', '', '', '', '', '', '', '', '', '', '', '', '', '', '', '0', '#', 'enable', 'perfect', 'memory', 'mode', '(no', 'cache', 'miss)\n']
Problem parsing this memory access (skipping this line):
['-n_regfile_gating_group', '', '', '', '', '', '', '', '', '', '', '', '', '', '', '', '', '', '', '', '4', '#', 'group', 'of', 'lanes', 'that', 'should', 'be', 'read/written', 'together)\n']
Problem parsing this memory access (skipping this line):
['-gpgpu_clock_gated_reg_file', '', '', '', '', '', '', '', '', '', '', '', '', '', '', '', '', '', '', '', '0', '#', 'enable', 'clock', 'gated', 'reg', 'file', 'for', 'power', 'calculations\n']
Problem parsing this memory access (skipping this line):
['-gpgpu_clock_gated_lanes', '', '', '', '', '', '', '', '', '', '', '', '', '', '', '', '', '', '', '', '0', '#', 'enable', 'clock', 'gated', 'lanes', 'for', 'power', 'calculations\n']
Problem parsing this memory access (skipping this line):
['-gpgpu_shader_registers', '', '', '', '', '', '', '', '', '', '', '', '', '', '', '', '65536', '#', 'Number', 'of', 'registers', 'per', 'shader', 'core.', 'Limits', 'number', 'of', 'concurrent', 'CTAs.', '(default', '8192)\n']
Problem parsing this memory access (skipping this line):
['-gpgpu_registers_per_block', '', '', '', '', '', '', '', '', '', '', '', '', '', '', '', '', '8192', '#', 'Maximum', 'number', 'of', 'registers', 'per', 'CTA.', '(default', '8192)\n']
Problem parsing this memory access (skipping this line):
['-gpgpu_ignore_resources_limitation', '', '', '', '', '', '', '', '', '', '', '', '', '', '', '', '', '', '', '', '0', '#', 'gpgpu_ignore_resources_limitation', '(default', '0)\n']
Problem parsing this memory access (skipping this line):
['-gpgpu_shader_cta', '', '', '', '', '', '', '', '', '', '', '', '', '', '', '', '', '', '', '', '', '', '32', '#', 'Maximum', 'number', 'of', 'concurrent', 'CTAs', 'in', 'shader', '(default', '8)\n']
Problem parsing this memory access (skipping this line):
['-gpgpu_num_cta_barriers', '', '', '', '', '', '', '', '', '', '', '', '', '', '', '', '', '', '', '16', '#', 'Maximum', 'number', 'of', 'named', 'barriers', 'per', 'CTA', '(default', '16)\n']
Problem parsing this memory access (skipping this line):
['-gpgpu_n_clusters', '', '', '', '', '', '', '', '', '', '', '', '', '', '', '', '', '', '', '', '', '', '40', '#', 'number', 'of', 'processing', 'clusters\n']
Problem parsing this memory access (skipping this line):
['-gpgpu_n_cores_per_cluster', '', '', '', '', '', '', '', '', '', '', '', '', '', '', '', '', '', '', '', '2', '#', 'number', 'of', 'simd', 'cores', 'per', 'cluster\n']
Problem parsing this memory access (skipping this line):
['-gpgpu_n_cluster_ejection_buffer_size', '', '', '', '', '', '', '', '', '', '', '', '', '', '', '', '', '', '', '32', '#', 'number', 'of', 'packets', 'in', 'ejection', 'buffer\n']
Problem parsing this memory access (skipping this line):
['-gpgpu_n_ldst_response_buffer_size', '', '', '', '', '', '', '', '', '', '', '', '', '', '', '', '', '', '', '', '2', '#', 'number', 'of', 'response', 'packets', 'in', 'ld/st', 'unit', 'ejection', 'buffer\n']
Problem parsing this memory access (skipping this line):
['-gpgpu_shmem_per_block', '', '', '', '', '', '', '', '', '', '', '', '', '', '', '', '49152', '#', 'Size', 'of', 'shared', 'memory', 'per', 'thread', 'block', 'or', 'CTA', '(default', '48kB)\n']
Problem parsing this memory access (skipping this line):
['-gpgpu_shmem_size', '', '', '', '', '', '', '', '', '', '', '', '', '', '', '', '', '', '', '16384', '#', 'Size', 'of', 'shared', 'memory', 'per', 'shader', 'core', '(default', '16kB)\n']
Problem parsing this memory access (skipping this line):
['-adaptive_volta_cache_config', '', '', '', '', '', '', '', '', '', '', '', '', '', '', '', '', '', '', '', '1', '#', 'adaptive_volta_cache_config\n']
Problem parsing this memory access (skipping this line):
['-gpgpu_shmem_size', '', '', '', '', '', '', '', '', '', '', '', '', '', '', '', '', '', '', '98304', '#', 'Size', 'of', 'shared', 'memory', 'per', 'shader', 'core', '(default', '16kB)\n']
Problem parsing this memory access (skipping this line):
['-gpgpu_shmem_size_PrefL1', '', '', '', '', '', '', '', '', '', '', '', '', '', '', '', '16384', '#', 'Size', 'of', 'shared', 'memory', 'per', 'shader', 'core', '(default', '16kB)\n']
Problem parsing this memory access (skipping this line):
['-gpgpu_shmem_size_PrefShared', '', '', '', '', '', '', '', '', '', '', '', '', '', '', '', '16384', '#', 'Size', 'of', 'shared', 'memory', 'per', 'shader', 'core', '(default', '16kB)\n']
Problem parsing this memory access (skipping this line):
['-gpgpu_shmem_num_banks', '', '', '', '', '', '', '', '', '', '', '', '', '', '', '', '', '', '', '32', '#', 'Number', 'of', 'banks', 'in', 'the', 'shared', 'memory', 'in', 'each', 'shader', 'core', '(default', '16)\n']
Problem parsing this memory access (skipping this line):
['-gpgpu_shmem_limited_broadcast', '', '', '', '', '', '', '', '', '', '', '', '', '', '', '', '', '', '', '', '0', '#', 'Limit', 'shared', 'memory', 'to', 'do', 'one', 'broadcast', 'per', 'cycle', '(default', 'on)\n']
Problem parsing this memory access (skipping this line):
['-gpgpu_shmem_warp_parts', '', '', '', '', '', '', '', '', '', '', '', '', '', '', '', '', '', '', '', '1', '#', 'Number', 'of', 'portions', 'a', 'warp', 'is', 'divided', 'into', 'for', 'shared', 'memory', 'bank', 'conflict', 'check', '\n']
Problem parsing this memory access (skipping this line):
['-mem_unit_ports', '', '', '', '', '', '', '', '', '', '', '', '', '', '', '', '', '', '', '', '', '', '', '', '', '4', '#', 'The', 'number', 'of', 'memory', 'transactions', 'allowed', 'per', 'core', 'cycle\n']
Problem parsing this memory access (skipping this line):
['-gpgpu_shmem_warp_parts', '', '', '', '', '', '', '', '', '', '', '', '', '', '', '', '', '', '', '', '1', '#', 'Number', 'of', 'portions', 'a', 'warp', 'is', 'divided', 'into', 'for', 'shared', 'memory', 'bank', 'conflict', 'check', '\n']
Problem parsing this memory access (skipping this line):
['-gpgpu_warpdistro_shader', '', '', '', '', '', '', '', '', '', '', '', '', '', '', '', '', '', '', '-1', '#', 'Specify', 'which', 'shader', 'core', 'to', 'collect', 'the', 'warp', 'size', 'distribution', 'from\n']
Problem parsing this memory access (skipping this line):
['-gpgpu_warp_issue_shader', '', '', '', '', '', '', '', '', '', '', '', '', '', '', '', '', '', '', '', '0', '#', 'Specify', 'which', 'shader', 'core', 'to', 'collect', 'the', 'warp', 'issue', 'distribution', 'from\n']
Problem parsing this memory access (skipping this line):
['-gpgpu_local_mem_map', '', '', '', '', '', '', '', '', '', '', '', '', '', '', '', '', '', '', '', '1', '#', 'Mapping', 'from', 'local', 'memory', 'space', 'address', 'to', 'simulated', 'GPU', 'physical', 'address', 'space', '(default', '=', 'enabled)\n']
Problem parsing this memory access (skipping this line):
['-gpgpu_num_reg_banks', '', '', '', '', '', '', '', '', '', '', '', '', '', '', '', '', '', '', '', '8', '#', 'Number', 'of', 'register', 'banks', '(default', '=', '8)\n']
Problem parsing this memory access (skipping this line):
['-gpgpu_reg_bank_use_warp_id', '', '', '', '', '', '', '', '', '', '', '', '', '', '', '', '', '', '', '', '0', '#', 'Use', 'warp', 'ID', 'in', 'mapping', 'registers', 'to', 'banks', '(default', '=', 'off)\n']
Problem parsing this memory access (skipping this line):
['-sub_core_model', '', '', '', '', '', '', '', '', '', '', '', '', '', '', '', '', '', '', '', '', '', '', '', '', '1', '#', 'Sub', 'Core', 'Volta/Pascal', 'model', '(default', '=', 'off)\n']
Problem parsing this memory access (skipping this line):
['-enable_specialized_operand_collector', '', '', '', '', '', '', '', '', '', '', '', '', '', '', '', '', '', '', '', '0', '#', 'enable_specialized_operand_collector\n']
Problem parsing this memory access (skipping this line):
['-gpgpu_operand_collector_num_units_sp', '', '', '', '', '', '', '', '', '', '', '', '', '', '', '', '', '', '', '', '4', '#', 'number', 'of', 'collector', 'units', '(default', '=', '4)\n']
Problem parsing this memory access (skipping this line):
['-gpgpu_operand_collector_num_units_dp', '', '', '', '', '', '', '', '', '', '', '', '', '', '', '', '', '', '', '', '0', '#', 'number', 'of', 'collector', 'units', '(default', '=', '0)\n']
Problem parsing this memory access (skipping this line):
['-gpgpu_operand_collector_num_units_sfu', '', '', '', '', '', '', '', '', '', '', '', '', '', '', '', '', '', '', '', '4', '#', 'number', 'of', 'collector', 'units', '(default', '=', '4)\n']
Problem parsing this memory access (skipping this line):
['-gpgpu_operand_collector_num_units_int', '', '', '', '', '', '', '', '', '', '', '', '', '', '', '', '', '', '', '', '0', '#', 'number', 'of', 'collector', 'units', '(default', '=', '0)\n']
Problem parsing this memory access (skipping this line):
['-gpgpu_operand_collector_num_units_tensor_core', '', '', '', '', '', '', '', '', '', '', '', '', '', '', '', '', '', '', '', '4', '#', 'number', 'of', 'collector', 'units', '(default', '=', '4)\n']
Problem parsing this memory access (skipping this line):
['-gpgpu_operand_collector_num_units_mem', '', '', '', '', '', '', '', '', '', '', '', '', '', '', '', '', '', '', '', '2', '#', 'number', 'of', 'collector', 'units', '(default', '=', '2)\n']
Problem parsing this memory access (skipping this line):
['-gpgpu_operand_collector_num_units_gen', '', '', '', '', '', '', '', '', '', '', '', '', '', '', '', '', '', '', '', '8', '#', 'number', 'of', 'collector', 'units', '(default', '=', '0)\n']
Problem parsing this memory access (skipping this line):
['-gpgpu_operand_collector_num_in_ports_sp', '', '', '', '', '', '', '', '', '', '', '', '', '', '', '', '', '', '', '', '1', '#', 'number', 'of', 'collector', 'unit', 'in', 'ports', '(default', '=', '1)\n']
Problem parsing this memory access (skipping this line):
['-gpgpu_operand_collector_num_in_ports_dp', '', '', '', '', '', '', '', '', '', '', '', '', '', '', '', '', '', '', '', '0', '#', 'number', 'of', 'collector', 'unit', 'in', 'ports', '(default', '=', '0)\n']
Problem parsing this memory access (skipping this line):
['-gpgpu_operand_collector_num_in_ports_sfu', '', '', '', '', '', '', '', '', '', '', '', '', '', '', '', '', '', '', '', '1', '#', 'number', 'of', 'collector', 'unit', 'in', 'ports', '(default', '=', '1)\n']
Problem parsing this memory access (skipping this line):
['-gpgpu_operand_collector_num_in_ports_int', '', '', '', '', '', '', '', '', '', '', '', '', '', '', '', '', '', '', '', '0', '#', 'number', 'of', 'collector', 'unit', 'in', 'ports', '(default', '=', '0)\n']
Problem parsing this memory access (skipping this line):
['-gpgpu_operand_collector_num_in_ports_tensor_core', '', '', '', '', '', '', '', '', '', '', '', '', '', '', '', '', '', '', '', '1', '#', 'number', 'of', 'collector', 'unit', 'in', 'ports', '(default', '=', '1)\n']
Problem parsing this memory access (skipping this line):
['-gpgpu_operand_collector_num_in_ports_mem', '', '', '', '', '', '', '', '', '', '', '', '', '', '', '', '', '', '', '', '1', '#', 'number', 'of', 'collector', 'unit', 'in', 'ports', '(default', '=', '1)\n']
Problem parsing this memory access (skipping this line):
['-gpgpu_operand_collector_num_in_ports_gen', '', '', '', '', '', '', '', '', '', '', '', '', '', '', '', '', '', '', '', '8', '#', 'number', 'of', 'collector', 'unit', 'in', 'ports', '(default', '=', '0)\n']
Problem parsing this memory access (skipping this line):
['-gpgpu_operand_collector_num_out_ports_sp', '', '', '', '', '', '', '', '', '', '', '', '', '', '', '', '', '', '', '', '1', '#', 'number', 'of', 'collector', 'unit', 'in', 'ports', '(default', '=', '1)\n']
Problem parsing this memory access (skipping this line):
['-gpgpu_operand_collector_num_out_ports_dp', '', '', '', '', '', '', '', '', '', '', '', '', '', '', '', '', '', '', '', '0', '#', 'number', 'of', 'collector', 'unit', 'in', 'ports', '(default', '=', '0)\n']
Problem parsing this memory access (skipping this line):
['-gpgpu_operand_collector_num_out_ports_sfu', '', '', '', '', '', '', '', '', '', '', '', '', '', '', '', '', '', '', '', '1', '#', 'number', 'of', 'collector', 'unit', 'in', 'ports', '(default', '=', '1)\n']
Problem parsing this memory access (skipping this line):
['-gpgpu_operand_collector_num_out_ports_int', '', '', '', '', '', '', '', '', '', '', '', '', '', '', '', '', '', '', '', '0', '#', 'number', 'of', 'collector', 'unit', 'in', 'ports', '(default', '=', '0)\n']
Problem parsing this memory access (skipping this line):
['-gpgpu_operand_collector_num_out_ports_tensor_core', '', '', '', '', '', '', '', '', '', '', '', '', '', '', '', '', '', '', '', '1', '#', 'number', 'of', 'collector', 'unit', 'in', 'ports', '(default', '=', '1)\n']
Problem parsing this memory access (skipping this line):
['-gpgpu_operand_collector_num_out_ports_mem', '', '', '', '', '', '', '', '', '', '', '', '', '', '', '', '', '', '', '', '1', '#', 'number', 'of', 'collector', 'unit', 'in', 'ports', '(default', '=', '1)\n']
Problem parsing this memory access (skipping this line):
['-gpgpu_operand_collector_num_out_ports_gen', '', '', '', '', '', '', '', '', '', '', '', '', '', '', '', '', '', '', '', '8', '#', 'number', 'of', 'collector', 'unit', 'in', 'ports', '(default', '=', '0)\n']
Problem parsing this memory access (skipping this line):
['-gpgpu_coalesce_arch', '', '', '', '', '', '', '', '', '', '', '', '', '', '', '', '', '', '', '60', '#', 'Coalescing', 'arch', '(GT200', '=', '13,', 'Fermi', '=', '20)\n']
Problem parsing this memory access (skipping this line):
['-gpgpu_num_sched_per_core', '', '', '', '', '', '', '', '', '', '', '', '', '', '', '', '', '', '', '', '4', '#', 'Number', 'of', 'warp', 'schedulers', 'per', 'core\n']
Problem parsing this memory access (skipping this line):
['-gpgpu_max_insn_issue_per_warp', '', '', '', '', '', '', '', '', '', '', '', '', '', '', '', '', '', '', '', '1', '#', 'Max', 'number', 'of', 'instructions', 'that', 'can', 'be', 'issued', 'per', 'warp', 'in', 'one', 'cycle', 'by', 'scheduler', '(either', '1', 'or', '2)\n']
Problem parsing this memory access (skipping this line):
['-gpgpu_dual_issue_diff_exec_units', '', '', '', '', '', '', '', '', '', '', '', '', '', '', '', '', '', '', '', '1', '#', 'should', 'dual', 'issue', 'use', 'two', 'different', 'execution', 'unit', 'resources', '(Default', '=', '1)\n']
Problem parsing this memory access (skipping this line):
['-gpgpu_simt_core_sim_order', '', '', '', '', '', '', '', '', '', '', '', '', '', '', '', '', '', '', '', '1', '#', 'Select', 'the', 'simulation', 'order', 'of', 'cores', 'in', 'a', 'cluster', '(0=Fix,', '1=Round-Robin)\n']
['-gpgpu_pipeline_widths', '4,4,4,4,4,4,4,4,4,4,8,4,4', '#', 'Pipeline', 'widths', 'ID_OC_SP,ID_OC_DP,ID_OC_INT,ID_OC_SFU,ID_OC_MEM,OC_EX_SP,OC_EX_DP,OC_EX_INT,OC_EX_SFU,OC_EX_MEM,EX_WB,ID_OC_TENSOR_CORE,OC_EX_TENSOR_CORE\n']
Problem parsing this memory access (skipping this line):
['-gpgpu_tensor_core_avail', '', '', '', '', '', '', '', '', '', '', '', '', '', '', '', '', '', '', '', '1', '#', 'Tensor', 'Core', 'Available', '(default=0)\n']
Problem parsing this memory access (skipping this line):
['-gpgpu_num_sp_units', '', '', '', '', '', '', '', '', '', '', '', '', '', '', '', '', '', '', '', '', '4', '#', 'Number', 'of', 'SP', 'units', '(default=1)\n']
Problem parsing this memory access (skipping this line):
['-gpgpu_num_dp_units', '', '', '', '', '', '', '', '', '', '', '', '', '', '', '', '', '', '', '', '', '4', '#', 'Number', 'of', 'DP', 'units', '(default=0)\n']
Problem parsing this memory access (skipping this line):
['-gpgpu_num_int_units', '', '', '', '', '', '', '', '', '', '', '', '', '', '', '', '', '', '', '', '4', '#', 'Number', 'of', 'INT', 'units', '(default=0)\n']
Problem parsing this memory access (skipping this line):
['-gpgpu_num_sfu_units', '', '', '', '', '', '', '', '', '', '', '', '', '', '', '', '', '', '', '', '4', '#', 'Number', 'of', 'SF', 'units', '(default=1)\n']
Problem parsing this memory access (skipping this line):
['-gpgpu_num_tensor_core_units', '', '', '', '', '', '', '', '', '', '', '', '', '', '', '', '', '', '', '', '4', '#', 'Number', 'of', 'tensor_core', 'units', '(default=1)\n']
Problem parsing this memory access (skipping this line):
['-gpgpu_num_mem_units', '', '', '', '', '', '', '', '', '', '', '', '', '', '', '', '', '', '', '', '1', '#', 'Number', 'if', 'ldst', 'units', '(default=1)', 'WARNING,', 'not', 'hooked', 'up', 'to', 'anything\n']
Problem parsing this memory access (skipping this line):
['-gpgpu_scheduler', '', '', '', '', '', '', '', '', '', '', '', '', '', '', '', '', '', '', '', '', '', 'gto', '#', 'Scheduler', 'configuration,', '<', 'lrr', '|', 'gto', '|', 'two_level_active', '>', 'If', 'two_level_active,<num_active_warps>,<inner_prioritization>,<outer_prioritization>For', 'complete', 'list', 'of', 'prioritization', 'values', 'see', 'shader.h', 'enum', 'scheduler_prioritization_typeDefault,', 'gto\n']
Problem parsing this memory access (skipping this line):
['-gpgpu_concurrent_kernel_sm', '', '', '', '', '', '', '', '', '', '', '', '', '', '', '', '', '', '', '', '0', '#', 'Support', 'concurrent', 'kernels', 'on', 'a', 'SM', '(default', '=', 'disabled)\n']
Problem parsing this memory access (skipping this line):
['-perf_sim_memcpy', '', '', '', '', '', '', '', '', '', '', '', '', '', '', '', '', '', '', '', '', '', '', '', '1', '#', 'Fill', 'the', 'L2', 'cache', 'on', 'memcpy\n']
Problem parsing this memory access (skipping this line):
['-gpgpu_dram_scheduler', '', '', '', '', '', '', '', '', '', '', '', '', '', '', '', '', '', '', '', '1', '#', '0', '=', 'fifo,', '1', '=', 'FR-FCFS', '(defaul)\n']
Problem parsing this memory access (skipping this line):
['-gpgpu_dram_partition_queues', '', '', '', '', '', '', '', '', '', '64,64,64,64', '#', 'i2$,$2d,d2$,$2i\n']
Problem parsing this memory access (skipping this line):
['-l2_ideal', '', '', '', '', '', '', '', '', '', '', '', '', '', '', '', '', '', '', '', '', '', '', '', '', '', '', '', '', '', '', '0', '#', 'Use', 'a', 'ideal', 'L2', 'cache', 'that', 'always', 'hit\n']
Problem parsing this memory access (skipping this line):
['-gpgpu_cache,dl2', '', '', '', '', 'S,32,128,24,L,B,m,L,L,A,192,4,32,0,32', '#', 'unified', 'banked', 'L2', 'data', 'cache', 'config', '', '{<nsets>,<bsize>,<assoc>,<rep>,<wr>,<alloc>,<wr_alloc>,<mshr>,<N>,<merge>,<mq>}\n']
Problem parsing this memory access (skipping this line):
['-gpgpu_cache,dl2_texture_only', '', '', '', '', '', '', '', '', '', '', '', '', '', '', '', '', '', '', '', '0', '#', 'L2', 'cache', 'used', 'for', 'texture', 'only\n']
Problem parsing this memory access (skipping this line):
['-gpgpu_n_mem', '', '', '', '', '', '', '', '', '', '', '', '', '', '', '', '', '', '', '', '', '', '', '', '', '', '', '24', '#', 'number', 'of', 'memory', 'modules', '(e.g.', 'memory', 'controllers)', 'in', 'gpu\n']
Problem parsing this memory access (skipping this line):
['-gpgpu_n_sub_partition_per_mchannel', '', '', '', '', '', '', '', '', '', '', '', '', '', '', '', '', '', '', '', '2', '#', 'number', 'of', 'memory', 'subpartition', 'in', 'each', 'memory', 'module\n']
Problem parsing this memory access (skipping this line):
['-gpgpu_n_mem_per_ctrlr', '', '', '', '', '', '', '', '', '', '', '', '', '', '', '', '', '', '', '', '1', '#', 'number', 'of', 'memory', 'chips', 'per', 'memory', 'controller\n']
Problem parsing this memory access (skipping this line):
['-gpgpu_memlatency_stat', '', '', '', '', '', '', '', '', '', '', '', '', '', '', '', '', '', '', '14', '#', 'track', 'and', 'display', 'latency', 'statistics', '0x2', 'enables', 'MC,', '0x4', 'enables', 'queue', 'logs\n']
Problem parsing this memory access (skipping this line):
['-gpgpu_frfcfs_dram_sched_queue_size', '', '', '', '', '', '', '', '', '', '', '', '', '', '', '', '', '', '', '64', '#', '0', '=', 'unlimited', '(default);', '#', 'entries', 'per', 'chip\n']
Problem parsing this memory access (skipping this line):
['-gpgpu_dram_return_queue_size', '', '', '', '', '', '', '', '', '', '', '', '', '', '', '', '', '', '192', '#', '0', '=', 'unlimited', '(default);', '#', 'entries', 'per', 'chip\n']
Problem parsing this memory access (skipping this line):
['-gpgpu_dram_buswidth', '', '', '', '', '', '', '', '', '', '', '', '', '', '', '', '', '', '', '16', '#', 'default', '=', '4', 'bytes', '(8', 'bytes', 'per', 'cycle', 'at', 'DDR)\n']
Problem parsing this memory access (skipping this line):
['-gpgpu_dram_burst_length', '', '', '', '', '', '', '', '', '', '', '', '', '', '', '', '', '', '', '', '2', '#', 'Burst', 'length', 'of', 'each', 'DRAM', 'request', '(default', '=', '4', 'data', 'bus', 'cycle)\n']
Problem parsing this memory access (skipping this line):
['-dram_data_command_freq_ratio', '', '', '', '', '', '', '', '', '', '', '', '', '', '', '', '', '', '', '', '2', '#', 'Frequency', 'ratio', 'between', 'DRAM', 'data', 'bus', 'and', 'command', 'bus', '(default', '=', '2', 'times,', 'i.e.', 'DDR)\n']
Problem parsing this memory access (skipping this line):
['-gpgpu_dram_timing_opt', 'nbk=16,CCD=1,RRD=3,RCD=12,RAS=28,RP=12,RC=40,', 'CL=12,WL=2,CDLR=3,WR=10,nbkgrp=4,CCDL=2,RTPL=3', '#', 'DRAM', 'timing', 'parameters', '=', '{nbk,tCCD,tRRD,tRCD,tRAS,tRP,tRC,CL,WL,tCDLR,tWR,nbkgrp,tCCDL,tRTPL}\n']
Problem parsing this memory access (skipping this line):
['-rop_latency', '', '', '', '', '', '', '', '', '', '', '', '', '', '', '', '', '', '', '', '', '', '', '', '', '', '120', '#', 'ROP', 'queue', 'latency', '(default', '85)\n']
Problem parsing this memory access (skipping this line):
['-dram_latency', '', '', '', '', '', '', '', '', '', '', '', '', '', '', '', '', '', '', '', '', '', '', '', '', '100', '#', 'DRAM', 'latency', '(default', '30)\n']
Problem parsing this memory access (skipping this line):
['-dual_bus_interface', '', '', '', '', '', '', '', '', '', '', '', '', '', '', '', '', '', '', '', '', '1', '#', 'dual_bus_interface', '(default', '=', '0)', '\n']
Problem parsing this memory access (skipping this line):
['-dram_bnk_indexing_policy', '', '', '', '', '', '', '', '', '', '', '', '', '', '', '', '', '', '', '', '0', '#', 'dram_bnk_indexing_policy', '(0', '=', 'normal', 'indexing,', '1', '=', 'Xoring', 'with', 'the', 'higher', 'bits)', '(Default', '=', '0)\n']
Problem parsing this memory access (skipping this line):
['-dram_bnkgrp_indexing_policy', '', '', '', '', '', '', '', '', '', '', '', '', '', '', '', '', '', '', '', '1', '#', 'dram_bnkgrp_indexing_policy', '(0', '=', 'take', 'higher', 'bits,', '1', '=', 'take', 'lower', 'bits)', '(Default', '=', '0)\n']
Problem parsing this memory access (skipping this line):
['-Seperate_Write_Queue_Enable', '', '', '', '', '', '', '', '', '', '', '', '', '', '', '', '', '', '', '', '0', '#', 'Seperate_Write_Queue_Enable\n']
Problem parsing this memory access (skipping this line):
['-Write_Queue_Size', '', '', '', '', '', '', '', '', '', '', '', '', '', '', '', '32,28,16', '#', 'Write_Queue_Size\n']
Problem parsing this memory access (skipping this line):
['-Elimnate_rw_turnaround', '', '', '', '', '', '', '', '', '', '', '', '', '', '', '', '', '', '', '', '0', '#', 'elimnate_rw_turnaround', 'i.e', 'set', 'tWTR', 'and', 'tRTW', '=', '0\n']
Problem parsing this memory access (skipping this line):
['-icnt_flit_size', '', '', '', '', '', '', '', '', '', '', '', '', '', '', '', '', '', '', '', '', '', '', '', '40', '#', 'icnt_flit_size\n']
Problem parsing this memory access (skipping this line):
['-gpgpu_mem_addr_mapping', 'dramid@8;00000000.00000000.00000000.00000000.0000RRRR.RRRRRRRR.RBBBCCCB.CCCSSSSS', '#', 'mapping', 'memory', 'address', 'to', 'dram', 'model', '{dramid@<start', 'bit>;<memory', 'address', 'map>}\n']
Problem parsing this memory access (skipping this line):
['-gpgpu_mem_addr_test', '', '', '', '', '', '', '', '', '', '', '', '', '', '', '', '', '', '', '', '0', '#', 'run', 'sweep', 'test', 'to', 'check', 'address', 'mapping', 'for', 'aliased', 'address\n']
Problem parsing this memory access (skipping this line):
['-gpgpu_mem_address_mask', '', '', '', '', '', '', '', '', '', '', '', '', '', '', '', '', '', '', '', '1', '#', '0', '=', 'old', 'addressing', 'mask,', '1', '=', 'new', 'addressing', 'mask,', '2', '=', 'new', 'add.', 'mask', '+', 'flipped', 'bank', 'sel', 'and', 'chip', 'sel', 'bits\n']
Problem parsing this memory access (skipping this line):
['-memory_partition_indexing', '', '', '', '', '', '', '', '', '', '', '', '', '', '', '', '', '', '', '', '0', '#', '0', '=', 'no', 'indexing,', '1', '=', 'bitwise', 'xoring,', '2', '=', 'IPoly,', '3', '=', 'custom', 'indexing\n']
Problem parsing this memory access (skipping this line):
['-gpuwattch_xml_file', '', '', '', '', '', '', '', '', 'gpuwattch.xml', '#', 'GPUWattch', 'XML', 'file\n']
Problem parsing this memory access (skipping this line):
['-power_simulation_enabled', '', '', '', '', '', '', '', '', '', '', '', '', '', '', '', '', '', '', '', '0', '#', 'Turn', 'on', 'power', 'simulator', '(1=On,', '0=Off)\n']
Problem parsing this memory access (skipping this line):
['-power_per_cycle_dump', '', '', '', '', '', '', '', '', '', '', '', '', '', '', '', '', '', '', '', '0', '#', 'Dump', 'detailed', 'power', 'output', 'each', 'cycle\n']
Problem parsing this memory access (skipping this line):
['-power_trace_enabled', '', '', '', '', '', '', '', '', '', '', '', '', '', '', '', '', '', '', '', '0', '#', 'produce', 'a', 'file', 'for', 'the', 'power', 'trace', '(1=On,', '0=Off)\n']
Problem parsing this memory access (skipping this line):
['-power_trace_zlevel', '', '', '', '', '', '', '', '', '', '', '', '', '', '', '', '', '', '', '', '', '6', '#', 'Compression', 'level', 'of', 'the', 'power', 'trace', 'output', 'log', '(0=no', 'comp,', '9=highest)\n']
Problem parsing this memory access (skipping this line):
['-steady_power_levels_enabled', '', '', '', '', '', '', '', '', '', '', '', '', '', '', '', '', '', '', '', '0', '#', 'produce', 'a', 'file', 'for', 'the', 'steady', 'power', 'levels', '(1=On,', '0=Off)\n']
Problem parsing this memory access (skipping this line):
['-steady_state_definition', '', '', '', '', '', '', '', '', '', '', '', '', '', '', '', '', '', '8,4', '#', 'allowed', 'deviation,number', 'of', 'samples\n']
Problem parsing this memory access (skipping this line):
['-gpgpu_max_cycle', '', '', '', '', '', '', '', '', '', '', '', '', '', '', '', '', '', '', '', '', '', '', '', '0', '#', 'terminates', 'gpu', 'simulation', 'early', '(0', '=', 'no', 'limit)\n']
Problem parsing this memory access (skipping this line):
['-gpgpu_max_insn', '', '', '', '', '', '', '', '', '', '', '', '', '', '', '', '', '', '', '', '', '', '', '', '', '0', '#', 'terminates', 'gpu', 'simulation', 'early', '(0', '=', 'no', 'limit)\n']
Problem parsing this memory access (skipping this line):
['-gpgpu_max_cta', '', '', '', '', '', '', '', '', '', '', '', '', '', '', '', '', '', '', '', '', '', '', '', '', '', '0', '#', 'terminates', 'gpu', 'simulation', 'early', '(0', '=', 'no', 'limit)\n']
Problem parsing this memory access (skipping this line):
['-gpgpu_runtime_stat', '', '', '', '', '', '', '', '', '', '', '', '', '', '', '', '', '', '', '500', '#', 'display', 'runtime', 'statistics', 'such', 'as', 'dram', 'utilization', '{<freq>,<flag>}\n']
Problem parsing this memory access (skipping this line):
['-liveness_message_freq', '', '', '', '', '', '', '', '', '', '', '', '', '', '', '', '', '', '', '', '1', '#', 'Minimum', 'number', 'of', 'seconds', 'between', 'simulation', 'liveness', 'messages', '(0', '=', 'always', 'print)\n']
Problem parsing this memory access (skipping this line):
['-gpgpu_compute_capability_major', '', '', '', '', '', '', '', '', '', '', '', '', '', '', '', '', '', '', '', '7', '#', 'Major', 'compute', 'capability', 'version', 'number\n']
Problem parsing this memory access (skipping this line):
['-gpgpu_compute_capability_minor', '', '', '', '', '', '', '', '', '', '', '', '', '', '', '', '', '', '', '', '5', '#', 'Minor', 'compute', 'capability', 'version', 'number\n']
Problem parsing this memory access (skipping this line):
['-gpgpu_flush_l1_cache', '', '', '', '', '', '', '', '', '', '', '', '', '', '', '', '', '', '', '', '1', '#', 'Flush', 'L1', 'cache', 'at', 'the', 'end', 'of', 'each', 'kernel', 'call\n']
Problem parsing this memory access (skipping this line):
['-gpgpu_flush_l2_cache', '', '', '', '', '', '', '', '', '', '', '', '', '', '', '', '', '', '', '', '0', '#', 'Flush', 'L2', 'cache', 'at', 'the', 'end', 'of', 'each', 'kernel', 'call\n']
Problem parsing this memory access (skipping this line):
['-gpgpu_deadlock_detect', '', '', '', '', '', '', '', '', '', '', '', '', '', '', '', '', '', '', '', '1', '#', 'Stop', 'the', 'simulation', 'at', 'deadlock', '(1=on', '(default),', '0=off)\n']
Problem parsing this memory access (skipping this line):
['-gpgpu_ptx_instruction_classification', '', '', '', '', '', '', '', '', '', '', '', '', '', '', '', '', '', '', '', '0', '#', 'if', 'enabled', 'will', 'classify', 'ptx', 'instruction', 'types', 'per', 'kernel', '(Max', '255', 'kernels', 'now)\n']
Problem parsing this memory access (skipping this line):
['-gpgpu_ptx_sim_mode', '', '', '', '', '', '', '', '', '', '', '', '', '', '', '', '', '', '', '', '', '0', '#', 'Select', 'between', 'Performance', '(default)', 'or', 'Functional', 'simulation', '(1)\n']
Problem parsing this memory access (skipping this line):
['-gpgpu_clock_domains', '1200.0,1200.0,1200.0,850.0', '#', 'Clock', 'Domain', 'Frequencies', 'in', 'MhZ', '{<Core', 'Clock>,<ICNT', 'Clock>,<L2', 'Clock>,<DRAM', 'Clock>}\n']
Problem parsing this memory access (skipping this line):
['-gpgpu_max_concurrent_kernel', '', '', '', '', '', '', '', '', '', '', '', '', '', '', '', '', '', '', '', '8', '#', 'maximum', 'kernels', 'that', 'can', 'run', 'concurrently', 'on', 'GPU\n']
Problem parsing this memory access (skipping this line):
['-gpgpu_cflog_interval', '', '', '', '', '', '', '', '', '', '', '', '', '', '', '', '', '', '', '', '0', '#', 'Interval', 'between', 'each', 'snapshot', 'in', 'control', 'flow', 'logger\n']
Problem parsing this memory access (skipping this line):
['-visualizer_enabled', '', '', '', '', '', '', '', '', '', '', '', '', '', '', '', '', '', '', '', '', '0', '#', 'Turn', 'on', 'visualizer', 'output', '(1=On,', '0=Off)\n']
Problem parsing this memory access (skipping this line):
['-visualizer_outputfile', '', '', '', '', '', '', '', '', '', '', '', '', '', '', '', '', 'NULL', '#', 'Specifies', 'the', 'output', 'log', 'file', 'for', 'visualizer\n']
Problem parsing this memory access (skipping this line):
['-visualizer_zlevel', '', '', '', '', '', '', '', '', '', '', '', '', '', '', '', '', '', '', '', '', '', '6', '#', 'Compression', 'level', 'of', 'the', 'visualizer', 'output', 'log', '(0=no', 'comp,', '9=highest)\n']
Problem parsing this memory access (skipping this line):
['-gpgpu_stack_size_limit', '', '', '', '', '', '', '', '', '', '', '', '', '', '', '', '', '1024', '#', 'GPU', 'thread', 'stack', 'size\n']
Problem parsing this memory access (skipping this line):
['-gpgpu_heap_size_limit', '', '', '', '', '', '', '', '', '', '', '', '', '', '8388608', '#', 'GPU', 'malloc', 'heap', 'size', '\n']
Problem parsing this memory access (skipping this line):
['-gpgpu_runtime_sync_depth_limit', '', '', '', '', '', '', '', '', '', '', '', '', '', '', '', '', '', '', '', '2', '#', 'GPU', 'device', 'runtime', 'synchronize', 'depth\n']
Problem parsing this memory access (skipping this line):
['-gpgpu_runtime_pending_launch_count_limit', '', '', '', '', '', '', '', '', '', '', '', '', '', '', '', '', '2048', '#', 'GPU', 'device', 'runtime', 'pending', 'launch', 'count\n']
Problem parsing this memory access (skipping this line):
['-trace_enabled', '', '', '', '', '', '', '', '', '', '', '', '', '', '', '', '', '', '', '', '', '', '', '', '', '', '0', '#', 'Turn', 'on', 'traces\n']
Problem parsing this memory access (skipping this line):
['-trace_components', '', '', '', '', '', '', '', '', '', '', '', '', '', '', '', '', '', '', '', 'none', '#', 'comma', 'seperated', 'list', 'of', 'traces', 'to', 'enable.', 'Complete', 'list', 'found', 'in', 'trace_streams.tup.', 'Default', 'none\n']
Problem parsing this memory access (skipping this line):
['-trace_sampling_core', '', '', '', '', '', '', '', '', '', '', '', '', '', '', '', '', '', '', '', '0', '#', 'The', 'core', 'which', 'is', 'printed', 'using', 'CORE_DPRINTF.', 'Default', '0\n']
Problem parsing this memory access (skipping this line):
['-trace_sampling_memory_partition', '', '', '', '', '', '', '', '', '', '', '', '', '', '', '', '', '', '', '-1', '#', 'The', 'memory', 'partition', 'which', 'is', 'printed', 'using', 'MEMPART_DPRINTF.', 'Default', '-1', '(i.e.', 'all)\n']
Problem parsing this memory access (skipping this line):
['-enable_ptx_file_line_stats', '', '', '', '', '', '', '', '', '', '', '', '', '', '', '', '', '', '', '', '1', '#', 'Turn', 'on', 'PTX', 'source', 'line', 'statistic', 'profiling.', '(1', '=', 'On)\n']
Problem parsing this memory access (skipping this line):
['-ptx_line_stats_filename', 'gpgpu_inst_stats.txt', '#', 'Output', 'file', 'for', 'PTX', 'source', 'line', 'statistics.\n']
Problem parsing this memory access (skipping this line):
['-gpgpu_kernel_launch_latency', '', '', '', '', '', '', '', '', '', '', '', '', '', '', '', '', '', '', '', '0', '#', 'Kernel', 'launch', 'latency', 'in', 'cycles.', 'Default,', '0\n']
Problem parsing this memory access (skipping this line):
['-gpgpu_cdp_enabled', '', '', '', '', '', '', '', '', '', '', '', '', '', '', '', '', '', '', '', '', '', '0', '#', 'Turn', 'on', 'CDP\n']
Problem parsing this memory access (skipping this line):
['DRAM', 'Timing', 'Options,\n']
Problem parsing this memory access (skipping this line):
['nbk', '', '', '', '', '', '', '', '', '', '', '', '', '', '', '', '', '', '', '', '', '', '', '', '', '', '', '', '', '', '', '', '', '', '', '', '16', '#', 'number', 'of', 'banks\n']
Problem parsing this memory access (skipping this line):
['CCD', '', '', '', '', '', '', '', '', '', '', '', '', '', '', '', '', '', '', '', '', '', '', '', '', '', '', '', '', '', '', '', '', '', '', '', '', '1', '#', 'column', 'to', 'column', 'delay\n']
Problem parsing this memory access (skipping this line):
['RRD', '', '', '', '', '', '', '', '', '', '', '', '', '', '', '', '', '', '', '', '', '', '', '', '', '', '', '', '', '', '', '', '', '', '', '', '', '3', '#', 'minimal', 'delay', 'between', 'activation', 'of', 'rows', 'in', 'different', 'banks\n']
Problem parsing this memory access (skipping this line):
['RCD', '', '', '', '', '', '', '', '', '', '', '', '', '', '', '', '', '', '', '', '', '', '', '', '', '', '', '', '', '', '', '', '', '', '', '', '12', '#', 'row', 'to', 'column', 'delay\n']
Problem parsing this memory access (skipping this line):
['RAS', '', '', '', '', '', '', '', '', '', '', '', '', '', '', '', '', '', '', '', '', '', '', '', '', '', '', '', '', '', '', '', '', '', '', '', '28', '#', 'time', 'needed', 'to', 'activate', 'row\n']
Problem parsing this memory access (skipping this line):
['RP', '', '', '', '', '', '', '', '', '', '', '', '', '', '', '', '', '', '', '', '', '', '', '', '', '', '', '', '', '', '', '', '', '', '', '', '', '12', '#', 'time', 'needed', 'to', 'precharge', '(deactivate)', 'row\n']
Problem parsing this memory access (skipping this line):
['RC', '', '', '', '', '', '', '', '', '', '', '', '', '', '', '', '', '', '', '', '', '', '', '', '', '', '', '', '', '', '', '', '', '', '', '', '', '40', '#', 'row', 'cycle', 'time\n']
Problem parsing this memory access (skipping this line):
['CDLR', '', '', '', '', '', '', '', '', '', '', '', '', '', '', '', '', '', '', '', '', '', '', '', '', '', '', '', '', '', '', '', '', '', '', '', '3', '#', 'switching', 'from', 'write', 'to', 'read', '(changes', 'tWTR)\n']
Problem parsing this memory access (skipping this line):
['WR', '', '', '', '', '', '', '', '', '', '', '', '', '', '', '', '', '', '', '', '', '', '', '', '', '', '', '', '', '', '', '', '', '', '', '', '', '10', '#', 'last', 'data-in', 'to', 'row', 'precharge\n']
Problem parsing this memory access (skipping this line):
['CL', '', '', '', '', '', '', '', '', '', '', '', '', '', '', '', '', '', '', '', '', '', '', '', '', '', '', '', '', '', '', '', '', '', '', '', '', '12', '#', 'CAS', 'latency\n']
Problem parsing this memory access (skipping this line):
['WL', '', '', '', '', '', '', '', '', '', '', '', '', '', '', '', '', '', '', '', '', '', '', '', '', '', '', '', '', '', '', '', '', '', '', '', '', '', '2', '#', 'Write', 'latency\n']
Problem parsing this memory access (skipping this line):
['nbkgrp', '', '', '', '', '', '', '', '', '', '', '', '', '', '', '', '', '', '', '', '', '', '', '', '', '', '', '', '', '', '', '', '', '', '4', '#', 'number', 'of', 'bank', 'groups\n']
Problem parsing this memory access (skipping this line):
['CCDL', '', '', '', '', '', '', '', '', '', '', '', '', '', '', '', '', '', '', '', '', '', '', '', '', '', '', '', '', '', '', '', '', '', '', '', '2', '#', 'column', 'to', 'column', 'delay', 'between', 'accesses', 'to', 'different', 'bank', 'groups\n']
Problem parsing this memory access (skipping this line):
['RTPL', '', '', '', '', '', '', '', '', '', '', '', '', '', '', '', '', '', '', '', '', '', '', '', '', '', '', '', '', '', '', '', '', '', '', '', '3', '#', 'read', 'to', 'precharge', 'delay', 'between', 'accesses', 'to', 'different', 'bank', 'groups\n']
Problem parsing this memory access (skipping this line):
['Total', 'number', 'of', 'memory', 'sub', 'partition', '=', '48\n']
['addr_dec_mask[CHIP]', '', '=', '0000000000000000', '\thigh,64', 'low,0\n']
Problem parsing this memory access (skipping this line):
['addr_dec_mask[BK]', '', '', '', '=', '0000000000007100', '\thigh,15', 'low,8\n']
Problem parsing this memory access (skipping this line):
['addr_dec_mask[ROW]', '', '', '=', '000000000fff8000', '\thigh,28', 'low,15\n']
Problem parsing this memory access (skipping this line):
['addr_dec_mask[COL]', '', '', '=', '0000000000000eff', '\thigh,12', 'low,0\n']
Problem parsing this memory access (skipping this line):
['addr_dec_mask[BURST]', '=', '000000000000001f', '\thigh,5', 'low,0\n']
Problem parsing this memory access (skipping this line):
['sub_partition_id_mask', '=', '0000000000000100\n']
Problem parsing this memory access (skipping this line):
['GPGPU-Sim', 'uArch,', 'clock', 'freqs,', '1200000000.000000,1200000000.000000,1200000000.000000,850000000.000000\n']
Problem parsing this memory access (skipping this line):
['GPGPU-Sim', 'uArch,', 'clock', 'periods,', '0.00000000083333333333,0.00000000083333333333,0.00000000083333333333,0.00000000117647058824\n']
Problem parsing this memory access (skipping this line):
['***', 'Initializing', 'Memory', 'Statistics', '***\n']
Problem parsing this memory access (skipping this line):
['GPGPU-Sim', 'uArch,', 'interconnect', 'node', 'map', '(shaderID+MemID', 'to', 'icntID)\n']
Problem parsing this memory access (skipping this line):
['GPGPU-Sim', 'uArch,', 'Memory', 'nodes', 'ID', 'start', 'from', 'index,', '40\n']
Problem parsing this memory access (skipping this line):
['GPGPU-Sim', 'uArch,', '', '', '', '0', '', '', '1', '', '', '2', '', '', '3', '', '', '4', '', '', '5', '', '', '6', '', '', '7', '', '', '8\n']
Problem parsing this memory access (skipping this line):
['GPGPU-Sim', 'uArch,', '', '', '', '9', '', '10', '', '11', '', '12', '', '13', '', '14', '', '15', '', '16', '', '17\n']
Problem parsing this memory access (skipping this line):
['GPGPU-Sim', 'uArch,', '', '', '18', '', '19', '', '20', '', '21', '', '22', '', '23', '', '24', '', '25', '', '26\n']
Problem parsing this memory access (skipping this line):
['GPGPU-Sim', 'uArch,', '', '', '27', '', '28', '', '29', '', '30', '', '31', '', '32', '', '33', '', '34', '', '35\n']
Problem parsing this memory access (skipping this line):
['GPGPU-Sim', 'uArch,', '', '', '36', '', '37', '', '38', '', '39', '', '40', '', '41', '', '42', '', '43', '', '44\n']
Problem parsing this memory access (skipping this line):
['GPGPU-Sim', 'uArch,', '', '', '45', '', '46', '', '47', '', '48', '', '49', '', '50', '', '51', '', '52', '', '53\n']
Problem parsing this memory access (skipping this line):
['GPGPU-Sim', 'uArch,', '', '', '54', '', '55', '', '56', '', '57', '', '58', '', '59', '', '60', '', '61', '', '62\n']
Problem parsing this memory access (skipping this line):
['GPGPU-Sim', 'uArch,', '', '', '63', '', '64', '', '65', '', '66', '', '67', '', '68', '', '69', '', '70', '', '71\n']
Problem parsing this memory access (skipping this line):
['GPGPU-Sim', 'uArch,', '', '', '72', '', '73', '', '74', '', '75', '', '76', '', '77', '', '78', '', '79', '', '80\n']
Problem parsing this memory access (skipping this line):
['GPGPU-Sim', 'uArch,', '', '', '81', '', '82', '', '83', '', '84', '', '85', '', '86', '', '87\n']
Problem parsing this memory access (skipping this line):
['GPGPU-Sim', 'uArch,', 'interconnect', 'node', 'reverse', 'map', '(icntID', 'to', 'shaderID+MemID)\n']
Problem parsing this memory access (skipping this line):
['GPGPU-Sim', 'uArch,', 'Memory', 'nodes', 'start', 'from', 'ID,', '40\n']
Problem parsing this memory access (skipping this line):
['GPGPU-Sim', 'uArch,', '', '', '', '0', '', '', '1', '', '', '2', '', '', '3', '', '', '4', '', '', '5', '', '', '6', '', '', '7', '', '', '8\n']
Problem parsing this memory access (skipping this line):
['GPGPU-Sim', 'uArch,', '', '', '', '9', '', '10', '', '11', '', '12', '', '13', '', '14', '', '15', '', '16', '', '17\n']
Problem parsing this memory access (skipping this line):
['GPGPU-Sim', 'uArch,', '', '', '18', '', '19', '', '20', '', '21', '', '22', '', '23', '', '24', '', '25', '', '26\n']
Problem parsing this memory access (skipping this line):
['GPGPU-Sim', 'uArch,', '', '', '27', '', '28', '', '29', '', '30', '', '31', '', '32', '', '33', '', '34', '', '35\n']
Problem parsing this memory access (skipping this line):
['GPGPU-Sim', 'uArch,', '', '', '36', '', '37', '', '38', '', '39', '', '40', '', '41', '', '42', '', '43', '', '44\n']
Problem parsing this memory access (skipping this line):
['GPGPU-Sim', 'uArch,', '', '', '45', '', '46', '', '47', '', '48', '', '49', '', '50', '', '51', '', '52', '', '53\n']
Problem parsing this memory access (skipping this line):
['GPGPU-Sim', 'uArch,', '', '', '54', '', '55', '', '56', '', '57', '', '58', '', '59', '', '60', '', '61', '', '62\n']
Problem parsing this memory access (skipping this line):
['GPGPU-Sim', 'uArch,', '', '', '63', '', '64', '', '65', '', '66', '', '67', '', '68', '', '69', '', '70', '', '71\n']
Problem parsing this memory access (skipping this line):
['GPGPU-Sim', 'uArch,', '', '', '72', '', '73', '', '74', '', '75', '', '76', '', '77', '', '78', '', '79', '', '80\n']
Problem parsing this memory access (skipping this line):
['GPGPU-Sim', 'uArch,', '', '', '81', '', '82', '', '83', '', '84', '', '85', '', '86', '', '87\n']
Problem parsing this memory access (skipping this line):
['35d54ee311e008f747c7def7e884ed24', '', '/home/francois/Documents/RayTracing/CWBVH/build_make/CWBVH_make\n']
Problem parsing this memory access (skipping this line):
['Extracting', 'PTX', 'file', 'and', 'ptxas', 'options', '', '', '', '1,', 'CWBVH_make.1.sm_75.ptx', '-arch=sm_75\n']
Problem parsing this memory access (skipping this line):
['Extracting', 'PTX', 'file', 'and', 'ptxas', 'options', '', '', '', '2,', 'CWBVH_make.2.sm_75.ptx', '-arch=sm_75\n']
Problem parsing this memory access (skipping this line):
['Extracting', 'PTX', 'file', 'and', 'ptxas', 'options', '', '', '', '3,', 'CWBVH_make.3.sm_75.ptx', '-arch=sm_75\n']
Problem parsing this memory access (skipping this line):
['Extracting', 'PTX', 'file', 'and', 'ptxas', 'options', '', '', '', '4,', 'CWBVH_make.4.sm_75.ptx', '-arch=sm_75\n']
['GPGPU-Sim', 'uArch,', 'performance', 'model', 'initialization', 'complete.\n']
Problem parsing this memory access (skipping this line):
['self', 'exe', 'links', 'to,', '/home/francois/Documents/RayTracing/CWBVH/build_make/CWBVH_make\n']
Problem parsing this memory access (skipping this line):
['self', 'exe', 'links', 'to,', '/home/francois/Documents/RayTracing/CWBVH/build_make/CWBVH_make\n']
Problem parsing this memory access (skipping this line):
['10.0\n']
Problem parsing this memory access (skipping this line):
['GPGPU-Sim', 'PTX,', '__cudaRegisterFatBinary,', 'fat_cubin_handle', '=', '1,', 'filename=default\n']
Problem parsing this memory access (skipping this line):
['self', 'exe', 'links', 'to,', '/home/francois/Documents/RayTracing/CWBVH/build_make/CWBVH_make\n']
['Running', 'md5sum', 'using', '"md5sum', '/home/francois/Documents/RayTracing/CWBVH/build_make/CWBVH_make', '"\n']
Problem parsing this memory access (skipping this line):
['self', 'exe', 'links', 'to,', '/home/francois/Documents/RayTracing/CWBVH/build_make/CWBVH_make\n']
Problem parsing this memory access (skipping this line):
['Extracting', 'specific', 'PTX', 'file', 'named', 'CWBVH_make.1.sm_75.ptx', '\n']
Problem parsing this memory access (skipping this line):
['Extracting', 'specific', 'PTX', 'file', 'named', 'CWBVH_make.2.sm_75.ptx', '\n']
Problem parsing this memory access (skipping this line):
['Extracting', 'specific', 'PTX', 'file', 'named', 'CWBVH_make.3.sm_75.ptx', '\n']
Problem parsing this memory access (skipping this line):
['Extracting', 'specific', 'PTX', 'file', 'named', 'CWBVH_make.4.sm_75.ptx', '\n']
Problem parsing this memory access (skipping this line):
['GPGPU-Sim', 'PTX,', '__cudaRegisterFunction', '_Z16rtTraceBVH2PlainP3RayP3HitiPi', ',', 'hostFun', '0x0x42d9e9,', 'fat_cubin_handle', '=', '1\n']
Problem parsing this memory access (skipping this line):
['GPGPU-Sim', 'PTX,', 'Parsing', 'CWBVH_make.1.sm_75.ptx\n']
Problem parsing this memory access (skipping this line):
['GPGPU-Sim', 'PTX,', 'allocating', 'global', 'region', 'for', '"BVHTreeNodes"', 'from', '0x100', 'to', '0x108', '(global', 'memory', 'space)\n']
Problem parsing this memory access (skipping this line):
['GPGPU-Sim', 'PTX,', 'allocating', 'global', 'region', 'for', '"TriangleWoopCoordinates"', 'from', '0x108', 'to', '0x110', '(global', 'memory', 'space)\n']
Problem parsing this memory access (skipping this line):
['GPGPU-Sim', 'PTX,', 'allocating', 'global', 'region', 'for', '"MappingFromTriangleAddressToIndex"', 'from', '0x110', 'to', '0x118', '(global', 'memory', 'space)\n']
Problem parsing this memory access (skipping this line):
['GPGPU-Sim', 'PTX,', 'allocating', 'stack', 'frame', 'region', 'for', '.local', '"__local_depot0"', 'from', '0x0', 'to', '0x80\n']
Problem parsing this memory access (skipping this line):
['GPGPU-Sim', 'PTX,', 'instruction', 'assembly', 'for', 'function', "'_Z16rtTraceBVH2PlainP3RayP3HitiPi'...", '', '', 'done.\n']
Problem parsing this memory access (skipping this line):
['GPGPU-Sim', 'PTX,', 'finished', 'parsing', 'EMBEDDED', '.ptx', 'file', 'CWBVH_make.1.sm_75.ptx\n']
Problem parsing this memory access (skipping this line):
['GPGPU-Sim', 'PTX,', 'Parsing', 'CWBVH_make.2.sm_75.ptx\n']
Problem parsing this memory access (skipping this line):
['GPGPU-Sim', 'PTX,', 'Warning', 'BVHTreeNodes', 'was', 'declared', 'previous', 'at', 'CWBVH_make.1.sm_75.ptx,14', 'skipping', 'new', 'declaration\n']
Problem parsing this memory access (skipping this line):
['GPGPU-Sim', 'PTX,', 'Warning', 'TriangleWoopCoordinates', 'was', 'declared', 'previous', 'at', 'CWBVH_make.1.sm_75.ptx,15', 'skipping', 'new', 'declaration\n']
Problem parsing this memory access (skipping this line):
['GPGPU-Sim', 'PTX,', 'Warning', 'MappingFromTriangleAddressToIndex', 'was', 'declared', 'previous', 'at', 'CWBVH_make.1.sm_75.ptx,16', 'skipping', 'new', 'declaration\n']
Problem parsing this memory access (skipping this line):
['GPGPU-Sim', 'PTX,', 'allocating', 'stack', 'frame', 'region', 'for', '.local', '"__local_depot0"', 'from', '0x0', 'to', '0x100\n']
Problem parsing this memory access (skipping this line):
['GPGPU-Sim', 'PTX,', 'allocating', 'shared', 'region', 'for', '"_ZZ24rtTraceCWBVHDynamicFetchP3RayP3HitiPiE16traversalStackSM"', 'from', '0x0', 'to', '0x1000', '(shared', 'memory', 'space)\n']
Problem parsing this memory access (skipping this line):
['GPGPU-Sim', 'PTX,', 'allocating', 'shared', 'region', 'for', '"_ZZ24rtTraceCWBVHDynamicFetchP3RayP3HitiPiE12nextRayArray"', 'from', '0x1000', 'to', '0x1008', '(shared', 'memory', 'space)\n']
Problem parsing this memory access (skipping this line):
['GPGPU-Sim', 'PTX,', 'instruction', 'assembly', 'for', 'function', "'_Z24rtTraceCWBVHDynamicFetchP3RayP3HitiPi'...", '', '', 'done.\n']
Problem parsing this memory access (skipping this line):
['GPGPU-Sim', 'PTX,', 'finished', 'parsing', 'EMBEDDED', '.ptx', 'file', 'CWBVH_make.2.sm_75.ptx\n']
Problem parsing this memory access (skipping this line):
['GPGPU-Sim', 'PTX,', 'Parsing', 'CWBVH_make.3.sm_75.ptx\n']
Problem parsing this memory access (skipping this line):
['GPGPU-Sim', 'PTX,', 'allocating', 'global', 'region', 'for', '"precalc_xorwow_matrix"', 'from', '0x180', 'to', '0x6580', '(global', 'memory', 'space)\n']
Problem parsing this memory access (skipping this line):
['GPGPU-Sim', 'PTX,', 'allocating', 'global', 'region', 'for', '"precalc_xorwow_offset_matrix"', 'from', '0x6580', 'to', '0xc980', '(global', 'memory', 'space)\n']
Problem parsing this memory access (skipping this line):
['GPGPU-Sim', 'PTX,', 'allocating', 'global', 'region', 'for', '"mrg32k3aM1"', 'from', '0xc980', 'to', '0xdb80', '(global', 'memory', 'space)\n']
Problem parsing this memory access (skipping this line):
['GPGPU-Sim', 'PTX,', 'allocating', 'global', 'region', 'for', '"mrg32k3aM2"', 'from', '0xdb80', 'to', '0xed80', '(global', 'memory', 'space)\n']
Problem parsing this memory access (skipping this line):
['GPGPU-Sim', 'PTX,', 'allocating', 'global', 'region', 'for', '"mrg32k3aM1SubSeq"', 'from', '0xed80', 'to', '0xfd40', '(global', 'memory', 'space)\n']
Problem parsing this memory access (skipping this line):
['GPGPU-Sim', 'PTX,', 'allocating', 'global', 'region', 'for', '"mrg32k3aM2SubSeq"', 'from', '0xfd80', 'to', '0x10d40', '(global', 'memory', 'space)\n']
Problem parsing this memory access (skipping this line):
['GPGPU-Sim', 'PTX,', 'allocating', 'global', 'region', 'for', '"mrg32k3aM1Seq"', 'from', '0x10d80', 'to', '0x11f80', '(global', 'memory', 'space)\n']
Problem parsing this memory access (skipping this line):
['GPGPU-Sim', 'PTX,', 'allocating', 'global', 'region', 'for', '"mrg32k3aM2Seq"', 'from', '0x11f80', 'to', '0x13180', '(global', 'memory', 'space)\n']
Problem parsing this memory access (skipping this line):
['GPGPU-Sim', 'PTX,', 'allocating', 'constant', 'region', 'for', '"__cr_lgamma_table"', 'from', '0x13180', 'to', '0x131c8', '(global', 'memory', 'space)', '1\n']
Problem parsing this memory access (skipping this line):
['GPGPU-Sim', 'PTX,', 'allocating', 'constant', 'region', 'for', '"__cudart_i2opi_f"', 'from', '0x13200', 'to', '0x13218', '(global', 'memory', 'space)', '2\n']
Problem parsing this memory access (skipping this line):
['GPGPU-Sim', 'PTX,', 'instruction', 'assembly', 'for', 'function', "'_Z33GenerateValidationTrianglesKernelP6float3P4int3i'...", '', '', 'done.\n']
Problem parsing this memory access (skipping this line):
['GPGPU-Sim', 'PTX,', 'instruction', 'assembly', 'for', 'function', "'_Z28GenerateValidationRaysKernelP3Rayi'...", '', '', 'done.\n']
Problem parsing this memory access (skipping this line):
['GPGPU-Sim', 'PTX,', 'allocating', 'stack', 'frame', 'region', 'for', '.local', '"__local_depot2"', 'from', '0x0', 'to', '0x1c\n']
Problem parsing this memory access (skipping this line):
['GPGPU-Sim', 'PTX,', 'Warning', '--', 'ignoring', 'pragma', "'nounroll'\n"]
Problem parsing this memory access (skipping this line):
['GPGPU-Sim', 'PTX,', 'Warning', '--', 'ignoring', 'pragma', "'nounroll'\n"]
Problem parsing this memory access (skipping this line):
['GPGPU-Sim', 'PTX,', 'instruction', 'assembly', 'for', 'function', "'_Z26GenerateAORayUniformKerneliiP6float4S0_PfP3Ray'...", '', '', 'done.\n']
Problem parsing this memory access (skipping this line):
['GPGPU-Sim', 'PTX,', 'finished', 'parsing', 'EMBEDDED', '.ptx', 'file', 'CWBVH_make.3.sm_75.ptx\n']
Problem parsing this memory access (skipping this line):
['GPGPU-Sim', 'PTX,', 'Parsing', 'CWBVH_make.4.sm_75.ptx\n']
Problem parsing this memory access (skipping this line):
['GPGPU-Sim', 'PTX,', 'finished', 'parsing', 'EMBEDDED', '.ptx', 'file', 'CWBVH_make.4.sm_75.ptx\n']
Problem parsing this memory access (skipping this line):
['GPGPU-Sim', 'PTX,', 'loading', 'globals', 'with', 'explicit', 'initializers...', '\n']
Problem parsing this memory access (skipping this line):
['GPGPU-Sim', 'PTX,', '', '', '', '', 'initializing', "'precalc_xorwow_matrix'", '...', '', 'wrote', '25600', 'bytes\n']
Problem parsing this memory access (skipping this line):
['GPGPU-Sim', 'PTX,', '', '', '', '', 'initializing', "'precalc_xorwow_offset_matrix'", '...', '', 'wrote', '25600', 'bytes\n']
Problem parsing this memory access (skipping this line):
['GPGPU-Sim', 'PTX,', '', '', '', '', 'initializing', "'mrg32k3aM1'", '...', '', 'wrote', '4608', 'bytes\n']
Problem parsing this memory access (skipping this line):
['GPGPU-Sim', 'PTX,', '', '', '', '', 'initializing', "'mrg32k3aM2'", '...', '', 'wrote', '4608', 'bytes\n']
Problem parsing this memory access (skipping this line):
['GPGPU-Sim', 'PTX,', '', '', '', '', 'initializing', "'mrg32k3aM1SubSeq'", '...', '', 'wrote', '4032', 'bytes\n']
Problem parsing this memory access (skipping this line):
['GPGPU-Sim', 'PTX,', '', '', '', '', 'initializing', "'mrg32k3aM2SubSeq'", '...', '', 'wrote', '4032', 'bytes\n']
Problem parsing this memory access (skipping this line):
['GPGPU-Sim', 'PTX,', '', '', '', '', 'initializing', "'mrg32k3aM1Seq'", '...', '', 'wrote', '4608', 'bytes\n']
Problem parsing this memory access (skipping this line):
['GPGPU-Sim', 'PTX,', '', '', '', '', 'initializing', "'mrg32k3aM2Seq'", '...', '', 'wrote', '4608', 'bytes\n']
Problem parsing this memory access (skipping this line):
['GPGPU-Sim', 'PTX,', 'finished', 'loading', 'globals', '(77696', 'bytes', 'total).\n']
Problem parsing this memory access (skipping this line):
['GPGPU-Sim', 'PTX,', 'loading', 'constants', 'with', 'explicit', 'initializers...', '', 'done.\n']
['GPGPU-Sim', 'PTX,', 'Loading', 'PTXInfo', 'from', 'CWBVH_make.1.sm_75.ptx\n']
Problem parsing this memory access (skipping this line):
['GPGPU-Sim', 'PTX,', 'Kernel', "'_Z16rtTraceBVH2PlainP3RayP3HitiPi'", ',', 'regs=51,', 'lmem=0,', 'smem=0,', 'cmem=384\n']
['GPGPU-Sim', 'PTX,', 'Loading', 'PTXInfo', 'from', 'CWBVH_make.2.sm_75.ptx\n']
Problem parsing this memory access (skipping this line):
['GPGPU-Sim', 'PTX,', 'Kernel', "'_Z24rtTraceCWBVHDynamicFetchP3RayP3HitiPi'", ',', 'regs=64,', 'lmem=0,', 'smem=4104,', 'cmem=384\n']
['GPGPU-Sim', 'PTX,', 'Loading', 'PTXInfo', 'from', 'CWBVH_make.3.sm_75.ptx\n']
Problem parsing this memory access (skipping this line):
['GPGPU-Sim', 'PTX,', 'Binary', 'info', ',', 'gmem=77696,', 'cmem=96\n']
Problem parsing this memory access (skipping this line):
['GPGPU-Sim', 'PTX,', 'Kernel', "'_Z26GenerateAORayUniformKerneliiP6float4S0_PfP3Ray'", ',', 'regs=32,', 'lmem=0,', 'smem=0,', 'cmem=400\n']
Problem parsing this memory access (skipping this line):
['GPGPU-Sim', 'PTX,', 'Kernel', "'_Z28GenerateValidationRaysKernelP3Rayi'", ',', 'regs=15,', 'lmem=0,', 'smem=0,', 'cmem=364\n']
Problem parsing this memory access (skipping this line):
['GPGPU-Sim', 'PTX,', 'Kernel', "'_Z33GenerateValidationTrianglesKernelP6float3P4int3i'", ',', 'regs=14,', 'lmem=0,', 'smem=0,', 'cmem=372\n']
['GPGPU-Sim', 'PTX,', 'Loading', 'PTXInfo', 'from', 'CWBVH_make.4.sm_75.ptx\n']
Problem parsing this memory access (skipping this line):
['GPGPU-Sim', 'PTX,', '__cudaRegisterVar,', 'hostVar', '=', '0x711790;', 'deviceAddress', '=', 'BVHTreeNodes;', 'deviceName', '=', 'BVHTreeNodes\n']
Problem parsing this memory access (skipping this line):
['GPGPU-Sim', 'PTX,', '__cudaRegisterVar,', 'Registering', 'const', 'memory', 'space', 'of', '8', 'bytes\n']
Problem parsing this memory access (skipping this line):
['GPGPU-Sim', 'PTX', 'registering', 'global', 'BVHTreeNodes', 'hostVar', 'to', 'name', 'mapping\n']
Problem parsing this memory access (skipping this line):
['GPGPU-Sim', 'PTX,', '__cudaRegisterVar,', 'hostVar', '=', '0x711798;', 'deviceAddress', '=', 'TriangleWoopCoordinates;', 'deviceName', '=', 'TriangleWoopCoordinates\n']
Problem parsing this memory access (skipping this line):
['GPGPU-Sim', 'PTX,', '__cudaRegisterVar,', 'Registering', 'const', 'memory', 'space', 'of', '8', 'bytes\n']
Problem parsing this memory access (skipping this line):
['GPGPU-Sim', 'PTX', 'registering', 'global', 'TriangleWoopCoordinates', 'hostVar', 'to', 'name', 'mapping\n']
Problem parsing this memory access (skipping this line):
['GPGPU-Sim', 'PTX,', '__cudaRegisterVar,', 'hostVar', '=', '0x7117a0;', 'deviceAddress', '=', 'MappingFromTriangleAddressToIndex;', 'deviceName', '=', 'MappingFromTriangleAddressToIndex\n']
Problem parsing this memory access (skipping this line):
['GPGPU-Sim', 'PTX,', '__cudaRegisterVar,', 'Registering', 'const', 'memory', 'space', 'of', '8', 'bytes\n']
Problem parsing this memory access (skipping this line):
['GPGPU-Sim', 'PTX', 'registering', 'global', 'MappingFromTriangleAddressToIndex', 'hostVar', 'to', 'name', 'mapping\n']
Problem parsing this memory access (skipping this line):
['self', 'exe', 'links', 'to,', '/home/francois/Documents/RayTracing/CWBVH/build_make/CWBVH_make\n']
Problem parsing this memory access (skipping this line):
['self', 'exe', 'links', 'to,', '/home/francois/Documents/RayTracing/CWBVH/build_make/CWBVH_make\n']
Problem parsing this memory access (skipping this line):
['10.0\n']
Problem parsing this memory access (skipping this line):
['GPGPU-Sim', 'PTX,', '__cudaRegisterFatBinary,', 'fat_cubin_handle', '=', '2,', 'filename=default\n']
Problem parsing this memory access (skipping this line):
['GPGPU-Sim', 'PTX,', '__cudaRegisterFunction', '_Z24rtTraceCWBVHDynamicFetchP3RayP3HitiPi', ',', 'hostFun', '0x0x42e137,', 'fat_cubin_handle', '=', '2\n']
Problem parsing this memory access (skipping this line):
['GPGPU-Sim', 'PTX,', '__cudaRegisterVar,', 'hostVar', '=', '0x7117e0;', 'deviceAddress', '=', 'BVHTreeNodes;', 'deviceName', '=', 'BVHTreeNodes\n']
Problem parsing this memory access (skipping this line):
['GPGPU-Sim', 'PTX,', '__cudaRegisterVar,', 'Registering', 'const', 'memory', 'space', 'of', '8', 'bytes\n']
Problem parsing this memory access (skipping this line):
['GPGPU-Sim', 'PTX', 'registering', 'global', 'BVHTreeNodes', 'hostVar', 'to', 'name', 'mapping\n']
Problem parsing this memory access (skipping this line):
['GPGPU-Sim', 'PTX,', '__cudaRegisterVar,', 'hostVar', '=', '0x7117e8;', 'deviceAddress', '=', 'TriangleWoopCoordinates;', 'deviceName', '=', 'TriangleWoopCoordinates\n']
Problem parsing this memory access (skipping this line):
['GPGPU-Sim', 'PTX,', '__cudaRegisterVar,', 'Registering', 'const', 'memory', 'space', 'of', '8', 'bytes\n']
Problem parsing this memory access (skipping this line):
['GPGPU-Sim', 'PTX', 'registering', 'global', 'TriangleWoopCoordinates', 'hostVar', 'to', 'name', 'mapping\n']
Problem parsing this memory access (skipping this line):
['GPGPU-Sim', 'PTX,', '__cudaRegisterVar,', 'hostVar', '=', '0x7117f0;', 'deviceAddress', '=', 'MappingFromTriangleAddressToIndex;', 'deviceName', '=', 'MappingFromTriangleAddressToIndex\n']
Problem parsing this memory access (skipping this line):
['GPGPU-Sim', 'PTX,', '__cudaRegisterVar,', 'Registering', 'const', 'memory', 'space', 'of', '8', 'bytes\n']
Problem parsing this memory access (skipping this line):
['GPGPU-Sim', 'PTX', 'registering', 'global', 'MappingFromTriangleAddressToIndex', 'hostVar', 'to', 'name', 'mapping\n']
Problem parsing this memory access (skipping this line):
['self', 'exe', 'links', 'to,', '/home/francois/Documents/RayTracing/CWBVH/build_make/CWBVH_make\n']
Problem parsing this memory access (skipping this line):
['self', 'exe', 'links', 'to,', '/home/francois/Documents/RayTracing/CWBVH/build_make/CWBVH_make\n']
Problem parsing this memory access (skipping this line):
['10.0\n']
Problem parsing this memory access (skipping this line):
['GPGPU-Sim', 'PTX,', '__cudaRegisterFatBinary,', 'fat_cubin_handle', '=', '3,', 'filename=default\n']
Problem parsing this memory access (skipping this line):
['GPGPU-Sim', 'PTX,', '__cudaRegisterFunction', '_Z26GenerateAORayUniformKerneliiP6float4S0_PfP3Ray', ',', 'hostFun', '0x0x42f5b3,', 'fat_cubin_handle', '=', '3\n']
Problem parsing this memory access (skipping this line):
['GPGPU-Sim', 'PTX,', '__cudaRegisterFunction', '_Z28GenerateValidationRaysKernelP3Rayi', ',', 'hostFun', '0x0x42f390,', 'fat_cubin_handle', '=', '3\n']
Problem parsing this memory access (skipping this line):
['GPGPU-Sim', 'PTX,', '__cudaRegisterFunction', '_Z33GenerateValidationTrianglesKernelP6float3P4int3i', ',', 'hostFun', '0x0x42f21f,', 'fat_cubin_handle', '=', '3\n']
Problem parsing this memory access (skipping this line):
['GPGPU-Sim', 'PTX,', '__cudaRegisterVar,', 'hostVar', '=', '0x711840;', 'deviceAddress', '=', 'precalc_xorwow_matrix;', 'deviceName', '=', 'precalc_xorwow_matrix\n']
Problem parsing this memory access (skipping this line):
['GPGPU-Sim', 'PTX,', '__cudaRegisterVar,', 'Registering', 'const', 'memory', 'space', 'of', '25600', 'bytes\n']
Problem parsing this memory access (skipping this line):
['GPGPU-Sim', 'PTX', 'registering', 'global', 'precalc_xorwow_matrix', 'hostVar', 'to', 'name', 'mapping\n']
Problem parsing this memory access (skipping this line):
['GPGPU-Sim', 'PTX,', '__cudaRegisterVar,', 'hostVar', '=', '0x717c40;', 'deviceAddress', '=', 'precalc_xorwow_offset_matrix;', 'deviceName', '=', 'precalc_xorwow_offset_matrix\n']
Problem parsing this memory access (skipping this line):
['GPGPU-Sim', 'PTX,', '__cudaRegisterVar,', 'Registering', 'const', 'memory', 'space', 'of', '25600', 'bytes\n']
Problem parsing this memory access (skipping this line):
['GPGPU-Sim', 'PTX', 'registering', 'global', 'precalc_xorwow_offset_matrix', 'hostVar', 'to', 'name', 'mapping\n']
Problem parsing this memory access (skipping this line):
['GPGPU-Sim', 'PTX,', '__cudaRegisterVar,', 'hostVar', '=', '0x71e040;', 'deviceAddress', '=', 'mrg32k3aM1;', 'deviceName', '=', 'mrg32k3aM1\n']
Problem parsing this memory access (skipping this line):
['GPGPU-Sim', 'PTX,', '__cudaRegisterVar,', 'Registering', 'const', 'memory', 'space', 'of', '4608', 'bytes\n']
Problem parsing this memory access (skipping this line):
['GPGPU-Sim', 'PTX', 'registering', 'global', 'mrg32k3aM1', 'hostVar', 'to', 'name', 'mapping\n']
Problem parsing this memory access (skipping this line):
['GPGPU-Sim', 'PTX,', '__cudaRegisterVar,', 'hostVar', '=', '0x71f240;', 'deviceAddress', '=', 'mrg32k3aM2;', 'deviceName', '=', 'mrg32k3aM2\n']
Problem parsing this memory access (skipping this line):
['GPGPU-Sim', 'PTX,', '__cudaRegisterVar,', 'Registering', 'const', 'memory', 'space', 'of', '4608', 'bytes\n']
Problem parsing this memory access (skipping this line):
['GPGPU-Sim', 'PTX', 'registering', 'global', 'mrg32k3aM2', 'hostVar', 'to', 'name', 'mapping\n']
Problem parsing this memory access (skipping this line):
['GPGPU-Sim', 'PTX,', '__cudaRegisterVar,', 'hostVar', '=', '0x720440;', 'deviceAddress', '=', 'mrg32k3aM1SubSeq;', 'deviceName', '=', 'mrg32k3aM1SubSeq\n']
Problem parsing this memory access (skipping this line):
['GPGPU-Sim', 'PTX,', '__cudaRegisterVar,', 'Registering', 'const', 'memory', 'space', 'of', '4032', 'bytes\n']
Problem parsing this memory access (skipping this line):
['GPGPU-Sim', 'PTX', 'registering', 'global', 'mrg32k3aM1SubSeq', 'hostVar', 'to', 'name', 'mapping\n']
Problem parsing this memory access (skipping this line):
['GPGPU-Sim', 'PTX,', '__cudaRegisterVar,', 'hostVar', '=', '0x721400;', 'deviceAddress', '=', 'mrg32k3aM2SubSeq;', 'deviceName', '=', 'mrg32k3aM2SubSeq\n']
Problem parsing this memory access (skipping this line):
['GPGPU-Sim', 'PTX,', '__cudaRegisterVar,', 'Registering', 'const', 'memory', 'space', 'of', '4032', 'bytes\n']
Problem parsing this memory access (skipping this line):
['GPGPU-Sim', 'PTX', 'registering', 'global', 'mrg32k3aM2SubSeq', 'hostVar', 'to', 'name', 'mapping\n']
Problem parsing this memory access (skipping this line):
['GPGPU-Sim', 'PTX,', '__cudaRegisterVar,', 'hostVar', '=', '0x7223c0;', 'deviceAddress', '=', 'mrg32k3aM1Seq;', 'deviceName', '=', 'mrg32k3aM1Seq\n']
Problem parsing this memory access (skipping this line):
['GPGPU-Sim', 'PTX,', '__cudaRegisterVar,', 'Registering', 'const', 'memory', 'space', 'of', '4608', 'bytes\n']
Problem parsing this memory access (skipping this line):
['GPGPU-Sim', 'PTX', 'registering', 'global', 'mrg32k3aM1Seq', 'hostVar', 'to', 'name', 'mapping\n']
Problem parsing this memory access (skipping this line):
['GPGPU-Sim', 'PTX,', '__cudaRegisterVar,', 'hostVar', '=', '0x7235c0;', 'deviceAddress', '=', 'mrg32k3aM2Seq;', 'deviceName', '=', 'mrg32k3aM2Seq\n']
Problem parsing this memory access (skipping this line):
['GPGPU-Sim', 'PTX,', '__cudaRegisterVar,', 'Registering', 'const', 'memory', 'space', 'of', '4608', 'bytes\n']
Problem parsing this memory access (skipping this line):
['GPGPU-Sim', 'PTX', 'registering', 'global', 'mrg32k3aM2Seq', 'hostVar', 'to', 'name', 'mapping\n']
Problem parsing this memory access (skipping this line):
['GPGPU-Sim', 'PTX,', '__cudaRegisterVar,', 'hostVar', '=', '0x7247c0;', 'deviceAddress', '=', '__cr_lgamma_table;', 'deviceName', '=', '__cr_lgamma_table\n']
Problem parsing this memory access (skipping this line):
['GPGPU-Sim', 'PTX,', '__cudaRegisterVar,', 'Registering', 'const', 'memory', 'space', 'of', '72', 'bytes\n']
Problem parsing this memory access (skipping this line):
['GPGPU-Sim', 'PTX', 'registering', 'constant', '__cr_lgamma_table', '(72', 'bytes)', 'to', 'name', 'mapping\n']
Problem parsing this memory access (skipping this line):
['self', 'exe', 'links', 'to,', '/home/francois/Documents/RayTracing/CWBVH/build_make/CWBVH_make\n']
Problem parsing this memory access (skipping this line):
['self', 'exe', 'links', 'to,', '/home/francois/Documents/RayTracing/CWBVH/build_make/CWBVH_make\n']
Problem parsing this memory access (skipping this line):
['10.0\n']
Problem parsing this memory access (skipping this line):
['GPGPU-Sim', 'PTX,', '__cudaRegisterFatBinary,', 'fat_cubin_handle', '=', '4,', 'filename=default\n']
Problem parsing this memory access (skipping this line):
['self', 'exe', 'links', 'to,', '/home/francois/Documents/RayTracing/CWBVH/build_make/CWBVH_make\n']
Problem parsing this memory access (skipping this line):
['self', 'exe', 'links', 'to,', '/home/francois/Documents/RayTracing/CWBVH/build_make/CWBVH_make\n']
Problem parsing this memory access (skipping this line):
['10.0\n']
Problem parsing this memory access (skipping this line):
[...]
Problem parsing this memory access (skipping this line):
['GPGPU-Sim', 'PTX,', '', '', '', 'immediate', 'post', 'dominator', '', '', '', '', '', '@', '', 'PC=0x1d70', '(CWBVH_make.2.sm_75.ptx,919)', 'activemask.b32', '%r384;\n']
Problem parsing this memory access (skipping this line):
['GPGPU-Sim', 'PTX,', '40', '(potential)', 'branch', 'divergence', '@', '', 'PC=0x1d48', '(CWBVH_make.2.sm_75.ptx,909)', 'bra.uni', 'BB0_47;\n']
Problem parsing this memory access (skipping this line):
['GPGPU-Sim', 'PTX,', '', '', '', 'immediate', 'post', 'dominator', '', '', '', '', '', '@', '', 'PC=0x1d70', '(CWBVH_make.2.sm_75.ptx,919)', 'activemask.b32', '%r384;\n']
Problem parsing this memory access (skipping this line):
['GPGPU-Sim', 'PTX,', '41', '(potential)', 'branch', 'divergence', '@', '', 'PC=0x1d98', '(CWBVH_make.2.sm_75.ptx,925)', '@%p49', 'bra', 'BB0_1;\n']
Problem parsing this memory access (skipping this line):
['GPGPU-Sim', 'PTX,', '', '', '', 'immediate', 'post', 'dominator', '', '', '', '', '', '@', '', 'PC=0x870', '(CWBVH_make.2.sm_75.ptx,67)', 'setp.lt.u32%p3,', '%r412,', '16777216;\n']
Problem parsing this memory access (skipping this line):
['GPGPU-Sim', 'PTX,', '42', '(potential)', 'branch', 'divergence', '@', '', 'PC=0x1da0', '(CWBVH_make.2.sm_75.ptx,926)', 'bra.uni', 'BB0_9;\n']
Problem parsing this memory access (skipping this line):
['GPGPU-Sim', 'PTX,', '', '', '', 'immediate', 'post', 'dominator', '', '', '', '', '', '@', '', 'PC=0xb00', '(CWBVH_make.2.sm_75.ptx,165)', 'mov.u32', '%r423,', '0;\n']
Problem parsing this memory access (skipping this line):
['GPGPU-Sim', 'PTX,', '...', 'end', 'of', 'reconvergence', 'points', 'for', '_Z24rtTraceCWBVHDynamicFetchP3RayP3HitiPi\n']
Problem parsing this memory access (skipping this line):
['GPGPU-Sim', 'PTX,', '...', 'done', 'pre-decoding', 'instructions', 'for', "'_Z24rtTraceCWBVHDynamicFetchP3RayP3HitiPi'.\n"]
Problem parsing this memory access (skipping this line):
['GPGPU-Sim', 'PTX,', 'pushing', 'kernel', "'_Z24rtTraceCWBVHDynamicFetchP3RayP3HitiPi'", 'to', 'stream', '0,', 'gridDim=', '(32,32,1)', 'blockDim', '=', '(32,1,1)', '\n']
Problem parsing this memory access (skipping this line):
['GPGPU-Sim', 'uArch,', 'Shader', '0', 'bind', 'to', 'kernel', '1', "'_Z24rtTraceCWBVHDynamicFetchP3RayP3HitiPi'\n"]
Problem parsing this memory access (skipping this line):
['GPGPU-Sim', 'uArch,', 'CTA/core', '=', '23,', 'limited', 'by,', 'shmem\n']
Problem parsing this memory access (skipping this line):
['GPGPU-Sim,', 'Reconfigure', 'L1', 'cache', 'in', 'Volta', 'Archi', 'to', '64KB\n']
Problem parsing this memory access (skipping this line):
['GPGPU-Sim', 'uArch,', 'Shader', '2', 'bind', 'to', 'kernel', '1', "'_Z24rtTraceCWBVHDynamicFetchP3RayP3HitiPi'\n"]
Problem parsing this memory access (skipping this line):
['GPGPU-Sim', 'uArch,', 'Shader', '4', 'bind', 'to', 'kernel', '1', "'_Z24rtTraceCWBVHDynamicFetchP3RayP3HitiPi'\n"]
Problem parsing this memory access (skipping this line):
['GPGPU-Sim', 'uArch,', 'Shader', '6', 'bind', 'to', 'kernel', '1', "'_Z24rtTraceCWBVHDynamicFetchP3RayP3HitiPi'\n"]
Problem parsing this memory access (skipping this line):
['GPGPU-Sim', 'uArch,', 'Shader', '8', 'bind', 'to', 'kernel', '1', "'_Z24rtTraceCWBVHDynamicFetchP3RayP3HitiPi'\n"]
Problem parsing this memory access (skipping this line):
['GPGPU-Sim', 'uArch,', 'Shader', '10', 'bind', 'to', 'kernel', '1', "'_Z24rtTraceCWBVHDynamicFetchP3RayP3HitiPi'\n"]
Problem parsing this memory access (skipping this line):
['GPGPU-Sim', 'uArch,', 'Shader', '12', 'bind', 'to', 'kernel', '1', "'_Z24rtTraceCWBVHDynamicFetchP3RayP3HitiPi'\n"]
Problem parsing this memory access (skipping this line):
['GPGPU-Sim', 'uArch,', 'Shader', '14', 'bind', 'to', 'kernel', '1', "'_Z24rtTraceCWBVHDynamicFetchP3RayP3HitiPi'\n"]
Problem parsing this memory access (skipping this line):
['GPGPU-Sim', 'uArch,', 'Shader', '16', 'bind', 'to', 'kernel', '1', "'_Z24rtTraceCWBVHDynamicFetchP3RayP3HitiPi'\n"]
Problem parsing this memory access (skipping this line):
['GPGPU-Sim', 'uArch,', 'Shader', '18', 'bind', 'to', 'kernel', '1', "'_Z24rtTraceCWBVHDynamicFetchP3RayP3HitiPi'\n"]
Problem parsing this memory access (skipping this line):
['GPGPU-Sim', 'uArch,', 'Shader', '20', 'bind', 'to', 'kernel', '1', "'_Z24rtTraceCWBVHDynamicFetchP3RayP3HitiPi'\n"]
Problem parsing this memory access (skipping this line):
['GPGPU-Sim', 'uArch,', 'Shader', '22', 'bind', 'to', 'kernel', '1', "'_Z24rtTraceCWBVHDynamicFetchP3RayP3HitiPi'\n"]
Problem parsing this memory access (skipping this line):
['GPGPU-Sim', 'uArch,', 'Shader', '24', 'bind', 'to', 'kernel', '1', "'_Z24rtTraceCWBVHDynamicFetchP3RayP3HitiPi'\n"]
Problem parsing this memory access (skipping this line):
['GPGPU-Sim', 'uArch,', 'Shader', '26', 'bind', 'to', 'kernel', '1', "'_Z24rtTraceCWBVHDynamicFetchP3RayP3HitiPi'\n"]
Problem parsing this memory access (skipping this line):
['GPGPU-Sim', 'uArch,', 'Shader', '28', 'bind', 'to', 'kernel', '1', "'_Z24rtTraceCWBVHDynamicFetchP3RayP3HitiPi'\n"]
Problem parsing this memory access (skipping this line):
['GPGPU-Sim', 'uArch,', 'Shader', '30', 'bind', 'to', 'kernel', '1', "'_Z24rtTraceCWBVHDynamicFetchP3RayP3HitiPi'\n"]
Problem parsing this memory access (skipping this line):
['GPGPU-Sim', 'uArch,', 'Shader', '32', 'bind', 'to', 'kernel', '1', "'_Z24rtTraceCWBVHDynamicFetchP3RayP3HitiPi'\n"]
Problem parsing this memory access (skipping this line):
['GPGPU-Sim', 'uArch,', 'Shader', '34', 'bind', 'to', 'kernel', '1', "'_Z24rtTraceCWBVHDynamicFetchP3RayP3HitiPi'\n"]
Problem parsing this memory access (skipping this line):
['GPGPU-Sim', 'uArch,', 'Shader', '36', 'bind', 'to', 'kernel', '1', "'_Z24rtTraceCWBVHDynamicFetchP3RayP3HitiPi'\n"]
Problem parsing this memory access (skipping this line):
['GPGPU-Sim', 'uArch,', 'Shader', '38', 'bind', 'to', 'kernel', '1', "'_Z24rtTraceCWBVHDynamicFetchP3RayP3HitiPi'\n"]
Problem parsing this memory access (skipping this line):
['GPGPU-Sim', 'uArch,', 'Shader', '40', 'bind', 'to', 'kernel', '1', "'_Z24rtTraceCWBVHDynamicFetchP3RayP3HitiPi'\n"]
Problem parsing this memory access (skipping this line):
['GPGPU-Sim', 'uArch,', 'Shader', '42', 'bind', 'to', 'kernel', '1', "'_Z24rtTraceCWBVHDynamicFetchP3RayP3HitiPi'\n"]
Problem parsing this memory access (skipping this line):
['GPGPU-Sim', 'uArch,', 'Shader', '44', 'bind', 'to', 'kernel', '1', "'_Z24rtTraceCWBVHDynamicFetchP3RayP3HitiPi'\n"]
Problem parsing this memory access (skipping this line):
['GPGPU-Sim', 'uArch,', 'Shader', '46', 'bind', 'to', 'kernel', '1', "'_Z24rtTraceCWBVHDynamicFetchP3RayP3HitiPi'\n"]
Problem parsing this memory access (skipping this line):
['GPGPU-Sim', 'uArch,', 'Shader', '48', 'bind', 'to', 'kernel', '1', "'_Z24rtTraceCWBVHDynamicFetchP3RayP3HitiPi'\n"]
Problem parsing this memory access (skipping this line):
['GPGPU-Sim', 'uArch,', 'Shader', '50', 'bind', 'to', 'kernel', '1', "'_Z24rtTraceCWBVHDynamicFetchP3RayP3HitiPi'\n"]
Problem parsing this memory access (skipping this line):
['GPGPU-Sim', 'uArch,', 'Shader', '52', 'bind', 'to', 'kernel', '1', "'_Z24rtTraceCWBVHDynamicFetchP3RayP3HitiPi'\n"]
Problem parsing this memory access (skipping this line):
['GPGPU-Sim', 'uArch,', 'Shader', '54', 'bind', 'to', 'kernel', '1', "'_Z24rtTraceCWBVHDynamicFetchP3RayP3HitiPi'\n"]
Problem parsing this memory access (skipping this line):
['GPGPU-Sim', 'uArch,', 'Shader', '56', 'bind', 'to', 'kernel', '1', "'_Z24rtTraceCWBVHDynamicFetchP3RayP3HitiPi'\n"]
Problem parsing this memory access (skipping this line):
['GPGPU-Sim', 'uArch,', 'Shader', '58', 'bind', 'to', 'kernel', '1', "'_Z24rtTraceCWBVHDynamicFetchP3RayP3HitiPi'\n"]
Problem parsing this memory access (skipping this line):
['GPGPU-Sim', 'uArch,', 'Shader', '60', 'bind', 'to', 'kernel', '1', "'_Z24rtTraceCWBVHDynamicFetchP3RayP3HitiPi'\n"]
Problem parsing this memory access (skipping this line):
['GPGPU-Sim', 'uArch,', 'Shader', '62', 'bind', 'to', 'kernel', '1', "'_Z24rtTraceCWBVHDynamicFetchP3RayP3HitiPi'\n"]
Problem parsing this memory access (skipping this line):
['GPGPU-Sim', 'uArch,', 'Shader', '64', 'bind', 'to', 'kernel', '1', "'_Z24rtTraceCWBVHDynamicFetchP3RayP3HitiPi'\n"]
Problem parsing this memory access (skipping this line):
['GPGPU-Sim', 'uArch,', 'Shader', '66', 'bind', 'to', 'kernel', '1', "'_Z24rtTraceCWBVHDynamicFetchP3RayP3HitiPi'\n"]
Problem parsing this memory access (skipping this line):
['GPGPU-Sim', 'uArch,', 'Shader', '68', 'bind', 'to', 'kernel', '1', "'_Z24rtTraceCWBVHDynamicFetchP3RayP3HitiPi'\n"]
Problem parsing this memory access (skipping this line):
['GPGPU-Sim', 'uArch,', 'Shader', '70', 'bind', 'to', 'kernel', '1', "'_Z24rtTraceCWBVHDynamicFetchP3RayP3HitiPi'\n"]
Problem parsing this memory access (skipping this line):
['GPGPU-Sim', 'uArch,', 'Shader', '72', 'bind', 'to', 'kernel', '1', "'_Z24rtTraceCWBVHDynamicFetchP3RayP3HitiPi'\n"]
Problem parsing this memory access (skipping this line):
['GPGPU-Sim', 'uArch,', 'Shader', '74', 'bind', 'to', 'kernel', '1', "'_Z24rtTraceCWBVHDynamicFetchP3RayP3HitiPi'\n"]
Problem parsing this memory access (skipping this line):
['GPGPU-Sim', 'uArch,', 'Shader', '76', 'bind', 'to', 'kernel', '1', "'_Z24rtTraceCWBVHDynamicFetchP3RayP3HitiPi'\n"]
Problem parsing this memory access (skipping this line):
['GPGPU-Sim', 'uArch,', 'Shader', '78', 'bind', 'to', 'kernel', '1', "'_Z24rtTraceCWBVHDynamicFetchP3RayP3HitiPi'\n"]
cudaRaysStart: 0xc0000000
cudaRaysSize: 0x61a800
cudaHitsStart: 0xc061a800
cudaHitsSize: 0x30d400
cudaBVHNodeDataStart: 0xc0927c00
cudaBVHNodeDataSize: 0x4ac9f0
cudaInlinedPrimitivesStart: 0xc0dd4600
cudaInlinedPrimitivesSize: 0x11c5590
cudaPrimitiveIndicesStart: 0xc1f99c00
cudaPrimitiveIndicesSize: 0x471564
Start Parsing started
Problem parsing this memory access (skipping this line):
['GPGPU-Sim', 'uArch,', 'Shader', '1', 'bind', 'to', 'kernel', '1', "'_Z24rtTraceCWBVHDynamicFetchP3RayP3HitiPi'\n"]
Problem parsing this memory access (skipping this line):
['GPGPU-Sim', 'uArch,', 'Shader', '3', 'bind', 'to', 'kernel', '1', "'_Z24rtTraceCWBVHDynamicFetchP3RayP3HitiPi'\n"]
Problem parsing this memory access (skipping this line):
['GPGPU-Sim', 'uArch,', 'Shader', '5', 'bind', 'to', 'kernel', '1', "'_Z24rtTraceCWBVHDynamicFetchP3RayP3HitiPi'\n"]
Problem parsing this memory access (skipping this line):
['GPGPU-Sim', 'uArch,', 'Shader', '7', 'bind', 'to', 'kernel', '1', "'_Z24rtTraceCWBVHDynamicFetchP3RayP3HitiPi'\n"]
Problem parsing this memory access (skipping this line):
['GPGPU-Sim', 'uArch,', 'Shader', '9', 'bind', 'to', 'kernel', '1', "'_Z24rtTraceCWBVHDynamicFetchP3RayP3HitiPi'\n"]
Problem parsing this memory access (skipping this line):
['GPGPU-Sim', 'uArch,', 'Shader', '11', 'bind', 'to', 'kernel', '1', "'_Z24rtTraceCWBVHDynamicFetchP3RayP3HitiPi'\n"]
Problem parsing this memory access (skipping this line):
['GPGPU-Sim', 'uArch,', 'Shader', '13', 'bind', 'to', 'kernel', '1', "'_Z24rtTraceCWBVHDynamicFetchP3RayP3HitiPi'\n"]
Problem parsing this memory access (skipping this line):
['GPGPU-Sim', 'uArch,', 'Shader', '15', 'bind', 'to', 'kernel', '1', "'_Z24rtTraceCWBVHDynamicFetchP3RayP3HitiPi'\n"]
Problem parsing this memory access (skipping this line):
['GPGPU-Sim', 'uArch,', 'Shader', '17', 'bind', 'to', 'kernel', '1', "'_Z24rtTraceCWBVHDynamicFetchP3RayP3HitiPi'\n"]
Problem parsing this memory access (skipping this line):
['GPGPU-Sim', 'uArch,', 'Shader', '19', 'bind', 'to', 'kernel', '1', "'_Z24rtTraceCWBVHDynamicFetchP3RayP3HitiPi'\n"]
Problem parsing this memory access (skipping this line):
['GPGPU-Sim', 'uArch,', 'Shader', '21', 'bind', 'to', 'kernel', '1', "'_Z24rtTraceCWBVHDynamicFetchP3RayP3HitiPi'\n"]
Problem parsing this memory access (skipping this line):
['GPGPU-Sim', 'uArch,', 'Shader', '23', 'bind', 'to', 'kernel', '1', "'_Z24rtTraceCWBVHDynamicFetchP3RayP3HitiPi'\n"]
Problem parsing this memory access (skipping this line):
['GPGPU-Sim', 'uArch,', 'Shader', '25', 'bind', 'to', 'kernel', '1', "'_Z24rtTraceCWBVHDynamicFetchP3RayP3HitiPi'\n"]
Problem parsing this memory access (skipping this line):
['GPGPU-Sim', 'uArch,', 'Shader', '27', 'bind', 'to', 'kernel', '1', "'_Z24rtTraceCWBVHDynamicFetchP3RayP3HitiPi'\n"]
Problem parsing this memory access (skipping this line):
['GPGPU-Sim', 'uArch,', 'Shader', '29', 'bind', 'to', 'kernel', '1', "'_Z24rtTraceCWBVHDynamicFetchP3RayP3HitiPi'\n"]
Problem parsing this memory access (skipping this line):
['GPGPU-Sim', 'uArch,', 'Shader', '31', 'bind', 'to', 'kernel', '1', "'_Z24rtTraceCWBVHDynamicFetchP3RayP3HitiPi'\n"]
Problem parsing this memory access (skipping this line):
['GPGPU-Sim', 'uArch,', 'Shader', '33', 'bind', 'to', 'kernel', '1', "'_Z24rtTraceCWBVHDynamicFetchP3RayP3HitiPi'\n"]
Problem parsing this memory access (skipping this line):
['GPGPU-Sim', 'uArch,', 'Shader', '35', 'bind', 'to', 'kernel', '1', "'_Z24rtTraceCWBVHDynamicFetchP3RayP3HitiPi'\n"]
Problem parsing this memory access (skipping this line):
['GPGPU-Sim', 'uArch,', 'Shader', '37', 'bind', 'to', 'kernel', '1', "'_Z24rtTraceCWBVHDynamicFetchP3RayP3HitiPi'\n"]
Problem parsing this memory access (skipping this line):
['GPGPU-Sim', 'uArch,', 'Shader', '39', 'bind', 'to', 'kernel', '1', "'_Z24rtTraceCWBVHDynamicFetchP3RayP3HitiPi'\n"]
Problem parsing this memory access (skipping this line):
['GPGPU-Sim', 'uArch,', 'Shader', '41', 'bind', 'to', 'kernel', '1', "'_Z24rtTraceCWBVHDynamicFetchP3RayP3HitiPi'\n"]
Problem parsing this memory access (skipping this line):
['GPGPU-Sim', 'uArch,', 'Shader', '43', 'bind', 'to', 'kernel', '1', "'_Z24rtTraceCWBVHDynamicFetchP3RayP3HitiPi'\n"]
Problem parsing this memory access (skipping this line):
['GPGPU-Sim', 'uArch,', 'Shader', '45', 'bind', 'to', 'kernel', '1', "'_Z24rtTraceCWBVHDynamicFetchP3RayP3HitiPi'\n"]
Problem parsing this memory access (skipping this line):
['GPGPU-Sim', 'uArch,', 'Shader', '47', 'bind', 'to', 'kernel', '1', "'_Z24rtTraceCWBVHDynamicFetchP3RayP3HitiPi'\n"]
Problem parsing this memory access (skipping this line):
['GPGPU-Sim', 'uArch,', 'Shader', '49', 'bind', 'to', 'kernel', '1', "'_Z24rtTraceCWBVHDynamicFetchP3RayP3HitiPi'\n"]
Problem parsing this memory access (skipping this line):
['GPGPU-Sim', 'uArch,', 'Shader', '51', 'bind', 'to', 'kernel', '1', "'_Z24rtTraceCWBVHDynamicFetchP3RayP3HitiPi'\n"]
Problem parsing this memory access (skipping this line):
['GPGPU-Sim', 'uArch,', 'Shader', '53', 'bind', 'to', 'kernel', '1', "'_Z24rtTraceCWBVHDynamicFetchP3RayP3HitiPi'\n"]
Problem parsing this memory access (skipping this line):
['GPGPU-Sim', 'uArch,', 'Shader', '55', 'bind', 'to', 'kernel', '1', "'_Z24rtTraceCWBVHDynamicFetchP3RayP3HitiPi'\n"]
Problem parsing this memory access (skipping this line):
['GPGPU-Sim', 'uArch,', 'Shader', '57', 'bind', 'to', 'kernel', '1', "'_Z24rtTraceCWBVHDynamicFetchP3RayP3HitiPi'\n"]
Problem parsing this memory access (skipping this line):
['GPGPU-Sim', 'uArch,', 'Shader', '59', 'bind', 'to', 'kernel', '1', "'_Z24rtTraceCWBVHDynamicFetchP3RayP3HitiPi'\n"]
Problem parsing this memory access (skipping this line):
['GPGPU-Sim', 'uArch,', 'Shader', '61', 'bind', 'to', 'kernel', '1', "'_Z24rtTraceCWBVHDynamicFetchP3RayP3HitiPi'\n"]
Problem parsing this memory access (skipping this line):
['GPGPU-Sim', 'uArch,', 'Shader', '63', 'bind', 'to', 'kernel', '1', "'_Z24rtTraceCWBVHDynamicFetchP3RayP3HitiPi'\n"]
Problem parsing this memory access (skipping this line):
['GPGPU-Sim', 'uArch,', 'Shader', '65', 'bind', 'to', 'kernel', '1', "'_Z24rtTraceCWBVHDynamicFetchP3RayP3HitiPi'\n"]
Problem parsing this memory access (skipping this line):
['GPGPU-Sim', 'uArch,', 'Shader', '67', 'bind', 'to', 'kernel', '1', "'_Z24rtTraceCWBVHDynamicFetchP3RayP3HitiPi'\n"]
Problem parsing this memory access (skipping this line):
['GPGPU-Sim', 'uArch,', 'Shader', '69', 'bind', 'to', 'kernel', '1', "'_Z24rtTraceCWBVHDynamicFetchP3RayP3HitiPi'\n"]
Problem parsing this memory access (skipping this line):
['GPGPU-Sim', 'uArch,', 'Shader', '71', 'bind', 'to', 'kernel', '1', "'_Z24rtTraceCWBVHDynamicFetchP3RayP3HitiPi'\n"]
Problem parsing this memory access (skipping this line):
['GPGPU-Sim', 'uArch,', 'Shader', '73', 'bind', 'to', 'kernel', '1', "'_Z24rtTraceCWBVHDynamicFetchP3RayP3HitiPi'\n"]
Problem parsing this memory access (skipping this line):
['GPGPU-Sim', 'uArch,', 'Shader', '75', 'bind', 'to', 'kernel', '1', "'_Z24rtTraceCWBVHDynamicFetchP3RayP3HitiPi'\n"]
Problem parsing this memory access (skipping this line):
['GPGPU-Sim', 'uArch,', 'Shader', '77', 'bind', 'to', 'kernel', '1', "'_Z24rtTraceCWBVHDynamicFetchP3RayP3HitiPi'\n"]
Problem parsing this memory access (skipping this line):
['GPGPU-Sim', 'uArch,', 'Shader', '79', 'bind', 'to', 'kernel', '1', "'_Z24rtTraceCWBVHDynamicFetchP3RayP3HitiPi'\n"]
Problem parsing this memory access (skipping this line):
['GPGPU-Sim', 'PTX,', 'WARNING', '(CWBVH_make.2.sm_75.ptx,59)', '**', 'reading', 'undefined', 'register', "'%f387'", '(cuid,0).', 'Setting', 'to', '0X00000000.', 'This', 'is', 'okay', 'if', 'you', 'are', 'simulating', 'the', 'native', 'ISA\n']
Exit keywords detected
======== Memory stats ========
Label: #cudaRays, #cudaHits, #cudaBVHNodeData, #cudaInlinedPrimitives, #cudaPrimitiveIndices, #other, #instructions
LDST:  [267484, 114783, 2351710, 492936, 0, 12394, 53501525]
L2:  [0, 0, 0, 0, 0, 0, 0]
DRAM:  [133742, 114783, 182463, 244476, 0, 4, 180]
L2_hit:  [0, 0, 726221, 53349, 0, 20105, 14220]
L2_miss:  [0, 0, 182463, 244476, 0, 4, 180]
L2_rf:  [0, 0, 0, 0, 0, 0, 0]
L1D_hit:  [0, 0, 773134, 30952, 0, 0, 0]
L1D_miss:  [267484, 114783, 1578576, 461984, 0, 2048, 0]
L1D_rf:  [0, 0, 0, 0, 0, 0, 0]
L1C_hit:  [0, 0, 0, 0, 0, 7274, 0]
L1C_miss:  [0, 0, 0, 0, 0, 3072, 0]
L1C_rf:  [0, 0, 0, 0, 0, 0, 0]
L1T_hit:  [0, 0, 0, 0, 0, 0, 0]
L1T_miss:  [0, 0, 0, 0, 0, 0, 0]
L1T_rf:  [0, 0, 0, 0, 0, 0, 0]
L1I_hit:  [0, 0, 0, 0, 0, 0, 53460853]
L1I_miss:  [0, 0, 0, 0, 0, 0, 40672]
L1I_rf:  [0, 0, 0, 0, 0, 0, 0]
SUM:  [668710, 344349, 5794567, 1528173, 0, 44901, 107017630]
Total number of accesses in LDST: 486736
reuse stats for: LDST
top 1%: 0.49166874272799704
top 5%: 0.6210448716345811
top 10%: 0.6860380939503419
top 20%: 0.7591244053126178
top 30%: 0.8080181964846185
top 40%: 0.8380703033087015
top 1% categories: [0, 0, 4826, 40, 0, 2, 0]
top 5% categories: [0, 0, 23349, 986, 0, 2, 0]
top 10% categories: [0, 0, 41475, 7197, 0, 2, 0]
top 20% categories: [522, 135, 62928, 33761, 0, 2, 0]
top 30% categories: [6690, 2259, 76144, 60926, 0, 2, 0]
top 40% categories: [28782, 9456, 80580, 75875, 0, 2, 0]
top 1% cutoff: 51
top 5% cutoff: 12
top 10% cutoff: 6
top 20% cutoff: 4
top 30% cutoff: 2
top 40% cutoff: 2
Total number of accesses in L2: 284720
reuse stats for: L2
top 1%: 0.32927121565149053
top 5%: 0.5200738942360214
top 10%: 0.6117210084965328
top 20%: 0.7158259539644779
top 30%: 0.7853455599053658
top 40%: 0.8317691408409138
top 1% categories: [0, 0, 2837, 7, 0, 4, 0]
top 5% categories: [0, 0, 13970, 262, 0, 4, 0]
top 10% categories: [0, 0, 26949, 1519, 0, 4, 0]
top 20% categories: [0, 0, 45914, 11026, 0, 4, 0]
top 30% categories: [0, 0, 58791, 26621, 0, 4, 0]
top 40% categories: [0, 0, 67712, 46172, 0, 4, 0]
top 1% cutoff: 48
top 5% cutoff: 11
top 10% cutoff: 6
top 20% cutoff: 3
top 30% cutoff: 2
top 40% cutoff: 2
Total number of accesses in DRAM: 486736
reuse stats for: DRAM
top 1%: 0.02941812195396377
top 5%: 0.11588705904646852
top 10%: 0.1949996150816915
top 20%: 0.33911895160096406
top 30%: 0.4832353272101713
top 40%: 0.5676464318072802
top 1% categories: [0, 283, 3379, 1206, 0, 0, 0]
top 5% categories: [10, 363, 15464, 8500, 0, 0, 0]
top 10% categories: [177, 7384, 24083, 17030, 0, 0, 0]
top 20% categories: [591, 24916, 37947, 33894, 0, 0, 0]
top 30% categories: [886, 42009, 52192, 50934, 0, 0, 0]
top 40% categories: [17160, 47708, 60495, 69329, 0, 3, 0]
top 1% cutoff: 3
top 5% cutoff: 3
top 10% cutoff: 2
top 20% cutoff: 2
top 30% cutoff: 2
top 40% cutoff: 1
